SMART-DS/v1.0/2018/AUS/P2U/scenarios/solar_high_batteries_none_timeseries/opendss_no_loadshapes/p2uhs0_1247/p2uhs0_1247--p2udt1587/Lines.dss
New Line.l(r:p2udt62lv-p2ulv63) Units=km Length=0.019922800000000004 bus1=p2udt62lv.1.2 bus2=p2ulv63.1.2 switch=n enabled=y phases=2 Linecode=1P_OH_AL_2/0_Rucina_2

New Line.l(r:p2udt62lv-p2ulv9654) Units=km Length=0.018991 bus1=p2udt62lv.1.2 bus2=p2ulv9654.1.2 switch=n enabled=y phases=2 Linecode=1P_OH_AL_2/0_Rucina_2

New Line.l(r:p2udm230-p2ulv13707) Units=km Length=0.014721600000000001 bus1=p2udm230.1.2 bus2=p2ulv13707.1.2 switch=n enabled=y phases=2 Linecode=1P_OH_AL_2/0_Rucina_2

New Line.l(r:p2udm230-p2udt62lv) Units=km Length=0.0190498 bus1=p2udt62lv.1.2 bus2=p2udm230.1.2 switch=n enabled=y phases=2 Linecode=1P_OH_AL_2/0_Rucina_2

New Line.l(r:p2udm231-p2ulv14581) Units=km Length=0.0279549 bus1=p2udm231.1.2 bus2=p2ulv14581.1.2 switch=n enabled=y phases=2 Linecode=1P_OH_AL_4/0_Zuzara_2

New Line.l(r:p2udm231-p2udt62lv) Units=km Length=0.019046700000000003 bus1=p2udt62lv.1.2 bus2=p2udm231.1.2 switch=n enabled=y phases=2 Linecode=1P_OH_AL_2/0_Rucina_2

New Line.l(r:p2udt63lv-p2ulv64) Units=km Length=0.02304 bus1=p2udt63lv.1.2 bus2=p2ulv64.1.2 switch=n enabled=y phases=2 Linecode=1P_OH_AL_2/0_Rucina_2

New Line.l(r:p2udt63lv-p2ulv559) Units=km Length=0.0285731 bus1=p2udt63lv.1.2 bus2=p2ulv559.1.2 switch=n enabled=y phases=2 Linecode=1P_OH_AL_4/0_Zuzara_2

New Line.l(r:p2udm234-p2ulv6394) Units=km Length=0.0226365 bus1=p2udm234.1.2 bus2=p2ulv6394.1.2 switch=n enabled=y phases=2 Linecode=1P_OH_AL_2/0_Rucina_2

New Line.l(r:p2udm234-p2ulv8744) Units=km Length=0.0191942 bus1=p2udm234.1.2 bus2=p2ulv8744.1.2 switch=n enabled=y phases=2 Linecode=1P_OH_AL_2/0_Rucina_2

New Line.l(r:p2udm234-p2udt63lv) Units=km Length=0.010489000000000002 bus1=p2udt63lv.1.2 bus2=p2udm234.1.2 switch=n enabled=y phases=2 Linecode=1P_OH_AL_2/0_Rucina_2

New Line.l(r:p2udt64lv-p2ulv65) Units=km Length=0.015138300000000002 bus1=p2udt64lv.1.2 bus2=p2ulv65.1.2 switch=n enabled=y phases=2 Linecode=1P_UG_AL_1/0_Brenau_2

New Line.l(r:p2udm237-p2ulv561) Units=km Length=0.0159165 bus1=p2udm237.1.2 bus2=p2ulv561.1.2 switch=n enabled=y phases=2 Linecode=1P_UG_AL_1/0_Brenau_2

New Line.l(r:p2udm239-p2ulv11115) Units=km Length=0.0136592 bus1=p2udm239.1.2 bus2=p2ulv11115.1.2 switch=n enabled=y phases=2 Linecode=1P_UG_AL_1/0_Brenau_2

New Line.l(r:p2udm237-p2udm239) Units=km Length=0.0475265 bus1=p2udm237.1.2 bus2=p2udm239.1.2 switch=n enabled=y phases=2 Linecode=1P_UG_AL_1/0_Brenau_2

New Line.l(r:p2udm237-p2udt64lv) Units=km Length=0.00986408 bus1=p2udt64lv.1.2 bus2=p2udm237.1.2 switch=n enabled=y phases=2 Linecode=1P_UG_AL_4/0_Sweetbriar_2

New Line.l(r:p2udm238-p2ulv9208) Units=km Length=0.0145713 bus1=p2udm238.1.2 bus2=p2ulv9208.1.2 switch=n enabled=y phases=2 Linecode=1P_UG_AL_1/0_Brenau_2

New Line.l(r:p2udm240-p2ulv19385) Units=km Length=0.016571700000000005 bus1=p2udm240.1.2 bus2=p2ulv19385.1.2 switch=n enabled=y phases=2 Linecode=1P_UG_AL_4/0_Sweetbriar_2

New Line.l(r:p2udm238-p2udm240) Units=km Length=0.00986408 bus1=p2udm238.1.2 bus2=p2udm240.1.2 switch=n enabled=y phases=2 Linecode=1P_UG_AL_4/0_Sweetbriar_2

New Line.l(r:p2udm238-p2udt64lv) Units=km Length=0.00985455 bus1=p2udt64lv.1.2 bus2=p2udm238.1.2 switch=n enabled=y phases=2 Linecode=1P_UG_AL_4/0_Sweetbriar_2

New Line.l(r:p2udt65lv-p2ulv8747) Units=km Length=0.0149621 bus1=p2udt65lv.1.2 bus2=p2ulv8747.1.2 switch=n enabled=y phases=2 Linecode=1P_UG_AL_1/0_Brenau_2

New Line.l(r:p2udm244-p2ulv13486) Units=km Length=0.016796 bus1=p2udm244.1.2 bus2=p2ulv13486.1.2 switch=n enabled=y phases=2 Linecode=1P_UG_AL_1/0_Brenau_2

New Line.l(r:p2udm242-p2ulv6395) Units=km Length=0.0167784 bus1=p2udm242.1.2 bus2=p2ulv6395.1.2 switch=n enabled=y phases=2 Linecode=1P_UG_AL_1/0_Brenau_2

New Line.l(r:p2udm242-p2udm244) Units=km Length=0.0295797 bus1=p2udm244.1.2 bus2=p2udm242.1.2 switch=n enabled=y phases=2 Linecode=1P_UG_AL_1/0_Brenau_2

New Line.l(r:p2udm244-p2udt65lv) Units=km Length=0.00985455 bus1=p2udt65lv.1.2 bus2=p2udm244.1.2 switch=n enabled=y phases=2 Linecode=1P_UG_AL_4/0_Sweetbriar_2

New Line.l(r:p2udm245-p2ulv15717) Units=km Length=0.0152407 bus1=p2udm245.1.2 bus2=p2ulv15717.1.2 switch=n enabled=y phases=2 Linecode=1P_UG_AL_1/0_Brenau_2

New Line.l(r:p2udm241-p2ulv66) Units=km Length=0.0157747 bus1=p2udm241.1.2 bus2=p2ulv66.1.2 switch=n enabled=y phases=2 Linecode=1P_UG_AL_4/0_Sweetbriar_2

New Line.l(r:p2udm241-p2udm245) Units=km Length=0.00985152 bus1=p2udm245.1.2 bus2=p2udm241.1.2 switch=n enabled=y phases=2 Linecode=1P_UG_AL_4/0_Sweetbriar_2

New Line.l(r:p2udm245-p2udt65lv) Units=km Length=0.00986408 bus1=p2udt65lv.1.2 bus2=p2udm245.1.2 switch=n enabled=y phases=2 Linecode=1P_UG_AL_4/0_Sweetbriar_2

New Line.l(r:p2udt66lv-p2ulv67) Units=km Length=0.0268549 bus1=p2udt66lv.1.2 bus2=p2ulv67.1.2 switch=n enabled=y phases=2 Linecode=1P_UG_AL_1/0_Brenau_2

New Line.l(r:p2udt66lv-p2ulv2500) Units=km Length=0.0240358 bus1=p2udt66lv.1.2 bus2=p2ulv2500.1.2 switch=n enabled=y phases=2 Linecode=1P_UG_AL_1/0_Brenau_2

New Line.l(r:p2udt66lv-p2ulv4195) Units=km Length=0.0269341 bus1=p2udt66lv.1.2 bus2=p2ulv4195.1.2 switch=n enabled=y phases=2 Linecode=1P_UG_AL_1/0_Brenau_2

New Line.l(r:p2udt66lv-p2ulv13233) Units=km Length=0.0240535 bus1=p2udt66lv.1.2 bus2=p2ulv13233.1.2 switch=n enabled=y phases=2 Linecode=1P_UG_AL_1/0_Brenau_2

New Line.l(r:p2udt66lv-p2ulv18023) Units=km Length=0.023906 bus1=p2udt66lv.1.2 bus2=p2ulv18023.1.2 switch=n enabled=y phases=2 Linecode=1P_UG_AL_1/0_Brenau_2

New Line.l(r:p2udt66lv-p2ulv20730) Units=km Length=0.0250668 bus1=p2udt66lv.1.2 bus2=p2ulv20730.1.2 switch=n enabled=y phases=2 Linecode=1P_UG_AL_1/0_Brenau_2

New Line.l(r:p2udt67lv-p2ulv68) Units=km Length=0.026832 bus1=p2udt67lv.1.2 bus2=p2ulv68.1.2 switch=n enabled=y phases=2 Linecode=1P_UG_AL_1/0_Brenau_2

New Line.l(r:p2udt67lv-p2ulv2247) Units=km Length=0.0323433 bus1=p2udt67lv.1.2 bus2=p2ulv2247.1.2 switch=n enabled=y phases=2 Linecode=1P_UG_AL_1/0_Brenau_2

New Line.l(r:p2udt67lv-p2ulv2501) Units=km Length=0.0271956 bus1=p2udt67lv.1.2 bus2=p2ulv2501.1.2 switch=n enabled=y phases=2 Linecode=1P_UG_AL_1/0_Brenau_2

New Line.l(r:p2udt67lv-p2ulv3242) Units=km Length=0.0250829 bus1=p2udt67lv.1.2 bus2=p2ulv3242.1.2 switch=n enabled=y phases=2 Linecode=1P_UG_AL_1/0_Brenau_2

New Line.l(r:p2udt67lv-p2ulv13490) Units=km Length=0.0281049 bus1=p2udt67lv.1.2 bus2=p2ulv13490.1.2 switch=n enabled=y phases=2 Linecode=1P_UG_AL_1/0_Brenau_2

New Line.l(r:p2udt67lv-p2ulv18255) Units=km Length=0.027511800000000003 bus1=p2udt67lv.1.2 bus2=p2ulv18255.1.2 switch=n enabled=y phases=2 Linecode=1P_UG_AL_1/0_Brenau_2

New Line.l(r:p2udt68lv-p2ulv6122) Units=km Length=0.014602200000000001 bus1=p2udt68lv.1.2 bus2=p2ulv6122.1.2 switch=n enabled=y phases=2 Linecode=1P_UG_AL_1/0_Brenau_2

New Line.l(r:p2udm258-p2ulv69) Units=km Length=0.0138474 bus1=p2udm258.1.2 bus2=p2ulv69.1.2 switch=n enabled=y phases=2 Linecode=1P_UG_AL_1/0_Brenau_2

New Line.l(r:p2udm258-p2ulv3708) Units=km Length=0.0161984 bus1=p2udm258.1.2 bus2=p2ulv3708.1.2 switch=n enabled=y phases=2 Linecode=1P_UG_AL_1/0_Brenau_2

New Line.l(r:p2udm258-p2ulv5175) Units=km Length=0.0145015 bus1=p2udm258.1.2 bus2=p2ulv5175.1.2 switch=n enabled=y phases=2 Linecode=1P_UG_AL_1/0_Brenau_2

New Line.l(r:p2udm258-p2udt68lv) Units=km Length=0.00944617 bus1=p2udt68lv.1.2 bus2=p2udm258.1.2 switch=n enabled=y phases=2 Linecode=1P_UG_AL_4/0_Sweetbriar_2

New Line.l(r:p2udm262-p2ulv6843) Units=km Length=0.0153517 bus1=p2udm262.1.2 bus2=p2ulv6843.1.2 switch=n enabled=y phases=2 Linecode=1P_UG_AL_1/0_Brenau_2

New Line.l(r:p2udm262-p2ulv23873) Units=km Length=0.0156637 bus1=p2udm262.1.2 bus2=p2ulv23873.1.2 switch=n enabled=y phases=2 Linecode=1P_UG_AL_1/0_Brenau_2

New Line.l(r:p2udm262-p2udt68lv) Units=km Length=0.0188702 bus1=p2udt68lv.1.2 bus2=p2udm262.1.2 switch=n enabled=y phases=2 Linecode=1P_UG_AL_4/0_Sweetbriar_2

New Line.l(r:p2udt326lv-p2ulv8071) Units=km Length=0.00986757 bus1=p2udt326lv.1.2 bus2=p2ulv8071.1.2 switch=n enabled=y phases=2 Linecode=1P_UG_AL_1/0_Brenau_2

New Line.l(r:p2udt326lv-p2ulv17118) Units=km Length=0.0158043 bus1=p2udt326lv.1.2 bus2=p2ulv17118.1.2 switch=n enabled=y phases=2 Linecode=1P_UG_AL_1/0_Brenau_2

New Line.l(r:p2udm1182-p2ulv335) Units=km Length=0.0159545 bus1=p2udm1182.1.2 bus2=p2ulv335.1.2 switch=n enabled=y phases=2 Linecode=1P_UG_AL_1/0_Brenau_2

New Line.l(r:p2udm1184-p2ulv9435) Units=km Length=0.0152186 bus1=p2udm1184.1.2 bus2=p2ulv9435.1.2 switch=n enabled=y phases=2 Linecode=1P_UG_AL_1/0_Brenau_2

New Line.l(r:p2udm1182-p2udm1184) Units=km Length=0.018380800000000003 bus1=p2udm1182.1.2 bus2=p2udm1184.1.2 switch=n enabled=y phases=2 Linecode=1P_UG_AL_1/0_Brenau_2

New Line.l(r:p2udm1182-p2udt326lv) Units=km Length=0.00918357 bus1=p2udt326lv.1.2 bus2=p2udm1182.1.2 switch=n enabled=y phases=2 Linecode=1P_UG_AL_4/0_Sweetbriar_2

New Line.l(r:p2udm1185-p2ulv14336) Units=km Length=0.0168998 bus1=p2udm1185.1.2 bus2=p2ulv14336.1.2 switch=n enabled=y phases=2 Linecode=1P_UG_AL_1/0_Brenau_2

New Line.l(r:p2udm1186-p2ulv14798) Units=km Length=0.0227234 bus1=p2udm1186.1.2 bus2=p2ulv14798.1.2 switch=n enabled=y phases=2 Linecode=1P_UG_AL_1/0_Brenau_2

New Line.l(r:p2udm1185-p2udm1186) Units=km Length=0.00616964 bus1=p2udm1185.1.2 bus2=p2udm1186.1.2 switch=n enabled=y phases=2 Linecode=1P_UG_AL_1/0_Brenau_2

New Line.l(r:p2udm1185-p2udt326lv) Units=km Length=0.00918357 bus1=p2udt326lv.1.2 bus2=p2udm1185.1.2 switch=n enabled=y phases=2 Linecode=1P_UG_AL_4/0_Sweetbriar_2

New Line.l(r:p2udt329lv-p2ulv14342) Units=km Length=0.0147106 bus1=p2udt329lv.1.2 bus2=p2ulv14342.1.2 switch=n enabled=y phases=2 Linecode=1P_UG_AL_4/0_Sweetbriar_2

New Line.l(r:p2udm1193-p2ulv338) Units=km Length=0.014423700000000001 bus1=p2udm1193.1.2 bus2=p2ulv338.1.2 switch=n enabled=y phases=2 Linecode=1P_UG_AL_1/0_Brenau_2

New Line.l(r:p2udm1197-p2ulv23228) Units=km Length=0.014341300000000001 bus1=p2udm1197.1.2 bus2=p2ulv23228.1.2 switch=n enabled=y phases=2 Linecode=1P_UG_AL_1/0_Brenau_2

New Line.l(r:p2udm1193-p2udm1197) Units=km Length=0.00826129 bus1=p2udm1193.1.2 bus2=p2udm1197.1.2 switch=n enabled=y phases=2 Linecode=1P_UG_AL_1/0_Brenau_2

New Line.l(r:p2udm1193-p2udt329lv) Units=km Length=0.00825845 bus1=p2udt329lv.1.2 bus2=p2udm1193.1.2 switch=n enabled=y phases=2 Linecode=1P_UG_AL_4/0_Sweetbriar_2

New Line.l(r:p2udm1195-p2ulv12048) Units=km Length=0.015277 bus1=p2udm1195.1.2 bus2=p2ulv12048.1.2 switch=n enabled=y phases=2 Linecode=1P_UG_AL_1/0_Brenau_2

New Line.l(r:p2udm1194-p2ulv6629) Units=km Length=0.0143756 bus1=p2udm1194.1.2 bus2=p2ulv6629.1.2 switch=n enabled=y phases=2 Linecode=1P_UG_AL_1/0_Brenau_2

New Line.l(r:p2udm1194-p2udm1195) Units=km Length=0.009857310000000001 bus1=p2udm1195.1.2 bus2=p2udm1194.1.2 switch=n enabled=y phases=2 Linecode=1P_UG_AL_1/0_Brenau_2

New Line.l(r:p2udm1195-p2udt329lv) Units=km Length=0.00987002 bus1=p2udt329lv.1.2 bus2=p2udm1195.1.2 switch=n enabled=y phases=2 Linecode=1P_UG_AL_2/0_Converse_2

New Line.l(r:p2udt330lv-p2ulv339) Units=km Length=0.0247098 bus1=p2udt330lv.1.2 bus2=p2ulv339.1.2 switch=n enabled=y phases=2 Linecode=1P_UG_AL_1/0_Brenau_2

New Line.l(r:p2udt330lv-p2ulv13709) Units=km Length=0.0250755 bus1=p2udt330lv.1.2 bus2=p2ulv13709.1.2 switch=n enabled=y phases=2 Linecode=1P_UG_AL_1/0_Brenau_2

New Line.l(r:p2udt330lv-p2ulv15043) Units=km Length=0.0246828 bus1=p2udt330lv.1.2 bus2=p2ulv15043.1.2 switch=n enabled=y phases=2 Linecode=1P_UG_AL_1/0_Brenau_2

New Line.l(r:p2udt330lv-p2ulv20058) Units=km Length=0.0268038 bus1=p2udt330lv.1.2 bus2=p2ulv20058.1.2 switch=n enabled=y phases=2 Linecode=1P_UG_AL_1/0_Brenau_2

New Line.l(r:p2udm1200-p2ulv13006) Units=km Length=0.020762100000000002 bus1=p2udm1200.1.2 bus2=p2ulv13006.1.2 switch=n enabled=y phases=2 Linecode=1P_UG_AL_1/0_Brenau_2

New Line.l(r:p2udm1199-p2ulv7340) Units=km Length=0.0159302 bus1=p2udm1199.1.2 bus2=p2ulv7340.1.2 switch=n enabled=y phases=2 Linecode=1P_OH_AL_2/0_Rucina_2

New Line.l(r:p2udm1199-p2udm1200) Units=km Length=0.0176206 bus1=p2udm1200.1.2 bus2=p2udm1199.1.2 switch=n enabled=y phases=2 Linecode=1P_OH_AL_2/0_Rucina_2

New Line.l(r:p2udm1200-p2udt330lv) Units=km Length=0.0097581 bus1=p2udt330lv.1.2 bus2=p2udm1200.1.2 switch=n enabled=y phases=2 Linecode=1P_UG_AL_4/0_Sweetbriar_2

New Line.l(r:p2udt528lv-p2ulv555) Units=km Length=0.0295971 bus1=p2udt528lv.1.2 bus2=p2ulv555.1.2 switch=n enabled=y phases=2 Linecode=1P_OH_AL_4/0_Zuzara_2

New Line.l(r:p2udt528lv-p2ulv783) Units=km Length=0.069163 bus1=p2udt528lv.1.2 bus2=p2ulv783.1.2 switch=n enabled=y phases=2 Linecode=1P_OH_AL_4/0_Zuzara_2

New Line.l(r:p2udt528lv-p2ulv7096) Units=km Length=0.0316515 bus1=p2udt528lv.1.2 bus2=p2ulv7096.1.2 switch=n enabled=y phases=2 Linecode=1P_OH_AL_4/0_Zuzara_2

New Line.l(r:p2udt528lv-p2ulv8312) Units=km Length=0.0318998 bus1=p2udt528lv.1.2 bus2=p2ulv8312.1.2 switch=n enabled=y phases=2 Linecode=1P_OH_AL_4/0_Zuzara_2

New Line.l(r:p2udt528lv-p2ulv17127) Units=km Length=0.0299286 bus1=p2udt528lv.1.2 bus2=p2ulv17127.1.2 switch=n enabled=y phases=2 Linecode=1P_OH_AL_4/0_Zuzara_2

New Line.l(r:p2udt528lv-p2ulv21405) Units=km Length=0.0105691 bus1=p2udt528lv.1.2 bus2=p2ulv21405.1.2 switch=n enabled=y phases=2 Linecode=1P_OH_AL_2/0_Rucina_2

New Line.l(r:p2udm1940-p2ulv5177) Units=km Length=0.0532424 bus1=p2udm1940.1.2 bus2=p2ulv5177.1.2 switch=n enabled=y phases=2 Linecode=1P_OH_AL_4/0_Zuzara_2

New Line.l(r:p2udm1940-p2udt528lv) Units=km Length=0.139423 bus1=p2udt528lv.1.2 bus2=p2udm1940.1.2 switch=n enabled=y phases=2 Linecode=1P_OH_AL_4/0_Zuzara_2

New Line.l(r:p2udm1945-p2ulv556) Units=km Length=0.013433400000000002 bus1=p2udm1945.1.2 bus2=p2ulv556.1.2 switch=n enabled=y phases=2 Linecode=1P_UG_AL_1/0_Brenau_2

New Line.l(r:p2udm1945-p2udt529lv) Units=km Length=0.00992665 bus1=p2udt529lv.1.2 bus2=p2udm1945.1.2 switch=n enabled=y phases=2 Linecode=1P_UG_AL_1/0_Brenau_2

New Line.l(r:p2udm1946-p2ulv16211) Units=km Length=0.014652 bus1=p2udm1946.1.2 bus2=p2ulv16211.1.2 switch=n enabled=y phases=2 Linecode=1P_UG_AL_1/0_Brenau_2

New Line.l(r:p2udm1946-p2udt529lv) Units=km Length=0.0287655 bus1=p2udt529lv.1.2 bus2=p2udm1946.1.2 switch=n enabled=y phases=2 Linecode=1P_UG_AL_1/0_Brenau_2

New Line.l(r:p2udm1947-p2ulv557) Units=km Length=0.014370600000000002 bus1=p2udm1947.1.2 bus2=p2ulv557.1.2 switch=n enabled=y phases=2 Linecode=1P_UG_AL_1/0_Brenau_2

New Line.l(r:p2udm1950-p2ulv23227) Units=km Length=0.013472700000000002 bus1=p2udm1950.1.2 bus2=p2ulv23227.1.2 switch=n enabled=y phases=2 Linecode=1P_UG_AL_1/0_Brenau_2

New Line.l(r:p2udm1949-p2ulv18682) Units=km Length=0.0129516 bus1=p2udm1949.1.2 bus2=p2ulv18682.1.2 switch=n enabled=y phases=2 Linecode=1P_UG_AL_1/0_Brenau_2

New Line.l(r:p2udm1949-p2udm1950) Units=km Length=0.00870435 bus1=p2udm1950.1.2 bus2=p2udm1949.1.2 switch=n enabled=y phases=2 Linecode=1P_UG_AL_1/0_Brenau_2

New Line.l(r:p2udm1947-p2udm1950) Units=km Length=0.008700140000000002 bus1=p2udm1947.1.2 bus2=p2udm1950.1.2 switch=n enabled=y phases=2 Linecode=1P_UG_AL_4/0_Sweetbriar_2

New Line.l(r:p2udm1947-p2udt530lv) Units=km Length=0.008709 bus1=p2udt530lv.1.2 bus2=p2udm1947.1.2 switch=n enabled=y phases=2 Linecode=1P_UG_AL_4/0_Sweetbriar_2

New Line.l(r:p2udm1948-p2ulv558) Units=km Length=0.0143942 bus1=p2udm1948.1.2 bus2=p2ulv558.1.2 switch=n enabled=y phases=2 Linecode=1P_UG_AL_1/0_Brenau_2

New Line.l(r:p2udm1948-p2udt530lv) Units=km Length=0.0443163 bus1=p2udt530lv.1.2 bus2=p2udm1948.1.2 switch=n enabled=y phases=2 Linecode=1P_UG_AL_1/0_Brenau_2

New Line.l(r:p2udm1951-p2ulv560) Units=km Length=0.0134085 bus1=p2udm1951.1.2 bus2=p2ulv560.1.2 switch=n enabled=y phases=2 Linecode=1P_OH_AL_2/0_Rucina_2

New Line.l(r:p2udm1951-p2udt531lv) Units=km Length=0.0240884 bus1=p2udt531lv.1.2 bus2=p2udm1951.1.2 switch=n enabled=y phases=2 Linecode=1P_OH_AL_2/0_Rucina_2

New Line.l(r:p2udm1952-p2ulv9900) Units=km Length=0.0130562 bus1=p2udm1952.1.2 bus2=p2ulv9900.1.2 switch=n enabled=y phases=2 Linecode=1P_UG_AL_1/0_Brenau_2

New Line.l(r:p2udm1952-p2ulv14806) Units=km Length=0.0145201 bus1=p2udm1952.1.2 bus2=p2ulv14806.1.2 switch=n enabled=y phases=2 Linecode=1P_UG_AL_1/0_Brenau_2

New Line.l(r:p2udm1952-p2udt531lv) Units=km Length=0.019029 bus1=p2udt531lv.1.2 bus2=p2udm1952.1.2 switch=n enabled=y phases=2 Linecode=1P_UG_AL_4/0_Sweetbriar_2

New Line.l(r:p2udt532lv-p2ulv562) Units=km Length=0.0143147 bus1=p2udt532lv.1.2 bus2=p2ulv562.1.2 switch=n enabled=y phases=2 Linecode=1P_UG_AL_1/0_Brenau_2

New Line.l(r:p2udm1957-p2ulv11575) Units=km Length=0.0179456 bus1=p2udm1957.1.2 bus2=p2ulv11575.1.2 switch=n enabled=y phases=2 Linecode=1P_UG_AL_1/0_Brenau_2

New Line.l(r:p2udm1956-p2ulv7095) Units=km Length=0.01491 bus1=p2udm1956.1.2 bus2=p2ulv7095.1.2 switch=n enabled=y phases=2 Linecode=1P_UG_AL_1/0_Brenau_2

New Line.l(r:p2udm1956-p2udm1957) Units=km Length=0.00829113 bus1=p2udm1957.1.2 bus2=p2udm1956.1.2 switch=n enabled=y phases=2 Linecode=1P_UG_AL_1/0_Brenau_2

New Line.l(r:p2udm1957-p2udt532lv) Units=km Length=0.009992200000000001 bus1=p2udt532lv.1.2 bus2=p2udm1957.1.2 switch=n enabled=y phases=2 Linecode=1P_UG_AL_4/0_Sweetbriar_2

New Line.l(r:p2udm1958-p2ulv17365) Units=km Length=0.0164471 bus1=p2udm1958.1.2 bus2=p2ulv17365.1.2 switch=n enabled=y phases=2 Linecode=1P_UG_AL_1/0_Brenau_2

New Line.l(r:p2udm1955-p2ulv1044) Units=km Length=0.0161079 bus1=p2udm1955.1.2 bus2=p2ulv1044.1.2 switch=n enabled=y phases=2 Linecode=1P_UG_AL_1/0_Brenau_2

New Line.l(r:p2udm1955-p2ulv19386) Units=km Length=0.0156277 bus1=p2udm1955.1.2 bus2=p2ulv19386.1.2 switch=n enabled=y phases=2 Linecode=1P_UG_AL_1/0_Brenau_2

New Line.l(r:p2udm1955-p2udm1958) Units=km Length=0.00784787 bus1=p2udm1958.1.2 bus2=p2udm1955.1.2 switch=n enabled=y phases=2 Linecode=1P_UG_AL_4/0_Sweetbriar_2

New Line.l(r:p2udm1958-p2udt532lv) Units=km Length=0.0100032 bus1=p2udt532lv.1.2 bus2=p2udm1958.1.2 switch=n enabled=y phases=2 Linecode=1P_UG_AL_4/0_Sweetbriar_2

New Line.l(r:p2udm2717-p2ulv786) Units=km Length=0.0163049 bus1=p2udm2717.1.2 bus2=p2ulv786.1.2 switch=n enabled=y phases=2 Linecode=1P_UG_AL_4/0_Sweetbriar_2

New Line.l(r:p2udm2717-p2ulv14345) Units=km Length=0.0149859 bus1=p2udm2717.1.2 bus2=p2ulv14345.1.2 switch=n enabled=y phases=2 Linecode=1P_UG_AL_4/0_Sweetbriar_2

New Line.l(r:p2udm2717-p2udt737lv) Units=km Length=0.00933872 bus1=p2udt737lv.1.2 bus2=p2udm2717.1.2 switch=n enabled=y phases=2 Linecode=1P_UG_AL_4/0_Sweetbriar_2

New Line.l(r:p2udm2718-p2ulv4447) Units=km Length=0.0143439 bus1=p2udm2718.1.2 bus2=p2ulv4447.1.2 switch=n enabled=y phases=2 Linecode=1P_UG_AL_1/0_Brenau_2

New Line.l(r:p2udm2718-p2ulv8313) Units=km Length=0.017385 bus1=p2udm2718.1.2 bus2=p2ulv8313.1.2 switch=n enabled=y phases=2 Linecode=1P_UG_AL_1/0_Brenau_2

New Line.l(r:p2udm2718-p2udt737lv) Units=km Length=0.00934179 bus1=p2udt737lv.1.2 bus2=p2udm2718.1.2 switch=n enabled=y phases=2 Linecode=1P_UG_AL_4/0_Sweetbriar_2

New Line.l(r:p2udm3570-p2ulv5650) Units=km Length=0.016974200000000002 bus1=p2udm3570.1.2 bus2=p2ulv5650.1.2 switch=n enabled=y phases=2 Linecode=1P_OH_AL_2/0_Rucina_2

New Line.l(r:p2udm3569-p2ulv1042) Units=km Length=0.012283000000000002 bus1=p2udm3569.1.2 bus2=p2ulv1042.1.2 switch=n enabled=y phases=2 Linecode=1P_OH_AL_2/0_Rucina_2

New Line.l(r:p2udm3569-p2udm3570) Units=km Length=0.026663100000000002 bus1=p2udm3570.1.2 bus2=p2udm3569.1.2 switch=n enabled=y phases=2 Linecode=1P_OH_AL_2/0_Rucina_2

New Line.l(r:p2udm3570-p2udt970lv) Units=km Length=0.0113816 bus1=p2udt970lv.1.2 bus2=p2udm3570.1.2 switch=n enabled=y phases=2 Linecode=1P_OH_AL_2/0_Rucina_2

New Line.l(r:p2udm3572-p2ulv12760) Units=km Length=0.0170952 bus1=p2udm3572.1.2 bus2=p2ulv12760.1.2 switch=n enabled=y phases=2 Linecode=1P_UG_AL_1/0_Brenau_2

New Line.l(r:p2udm3571-p2ulv10859) Units=km Length=0.0165607 bus1=p2udm3571.1.2 bus2=p2ulv10859.1.2 switch=n enabled=y phases=2 Linecode=1P_UG_AL_1/0_Brenau_2

New Line.l(r:p2udm3571-p2udm3572) Units=km Length=0.0290211 bus1=p2udm3572.1.2 bus2=p2udm3571.1.2 switch=n enabled=y phases=2 Linecode=1P_UG_AL_1/0_Brenau_2

New Line.l(r:p2udm3572-p2udt970lv) Units=km Length=0.009670760000000002 bus1=p2udt970lv.1.2 bus2=p2udm3572.1.2 switch=n enabled=y phases=2 Linecode=1P_OH_AL_2/0_Rucina_2

New Line.l(r:p2udt971lv-p2ulv11574) Units=km Length=0.0140431 bus1=p2udt971lv.1.2 bus2=p2ulv11574.1.2 switch=n enabled=y phases=2 Linecode=1P_UG_AL_1/0_Brenau_2

New Line.l(r:p2udm3573-p2ulv1043) Units=km Length=0.0145084 bus1=p2udm3573.1.2 bus2=p2ulv1043.1.2 switch=n enabled=y phases=2 Linecode=1P_UG_AL_1/0_Brenau_2

New Line.l(r:p2udm3573-p2ulv13484) Units=km Length=0.0145529 bus1=p2udm3573.1.2 bus2=p2ulv13484.1.2 switch=n enabled=y phases=2 Linecode=1P_UG_AL_1/0_Brenau_2

New Line.l(r:p2udm3573-p2ulv14578) Units=km Length=0.013971400000000002 bus1=p2udm3573.1.2 bus2=p2ulv14578.1.2 switch=n enabled=y phases=2 Linecode=1P_UG_AL_1/0_Brenau_2

New Line.l(r:p2udm3573-p2udt971lv) Units=km Length=0.00996653 bus1=p2udt971lv.1.2 bus2=p2udm3573.1.2 switch=n enabled=y phases=2 Linecode=1P_UG_AL_4/0_Sweetbriar_2

New Line.l(r:p2udm3574-p2ulv8530) Units=km Length=0.0151083 bus1=p2udm3574.1.2 bus2=p2ulv8530.1.2 switch=n enabled=y phases=2 Linecode=1P_UG_AL_1/0_Brenau_2

New Line.l(r:p2udm3574-p2ulv21149) Units=km Length=0.0134568 bus1=p2udm3574.1.2 bus2=p2ulv21149.1.2 switch=n enabled=y phases=2 Linecode=1P_UG_AL_1/0_Brenau_2

New Line.l(r:p2udm3574-p2udt971lv) Units=km Length=0.0099753 bus1=p2udt971lv.1.2 bus2=p2udm3574.1.2 switch=n enabled=y phases=2 Linecode=1P_UG_AL_4/0_Sweetbriar_2

New Line.l(r:p2udt972lv-p2ulv14346) Units=km Length=0.0159993 bus1=p2udt972lv.1.2 bus2=p2ulv14346.1.2 switch=n enabled=y phases=2 Linecode=1P_UG_AL_1/0_Brenau_2

New Line.l(r:p2udm3579-p2ulv1045) Units=km Length=0.0158869 bus1=p2udm3579.1.2 bus2=p2ulv1045.1.2 switch=n enabled=y phases=2 Linecode=1P_UG_AL_1/0_Brenau_2

New Line.l(r:p2udm3579-p2udt972lv) Units=km Length=0.00944617 bus1=p2udt972lv.1.2 bus2=p2udm3579.1.2 switch=n enabled=y phases=2 Linecode=1P_UG_AL_1/0_Brenau_2

New Line.l(r:p2udm3580-p2ulv1544) Units=km Length=0.0253483 bus1=p2udm3580.1.2 bus2=p2ulv1544.1.2 switch=n enabled=y phases=2 Linecode=1P_UG_AL_1/0_Brenau_2

New Line.l(r:p2udm3580-p2udt972lv) Units=km Length=0.00943358 bus1=p2udt972lv.1.2 bus2=p2udm3580.1.2 switch=n enabled=y phases=2 Linecode=1P_UG_AL_1/0_Brenau_2

New Line.l(r:p2udt1167lv-p2ulv9204) Units=km Length=0.0157564 bus1=p2udt1167lv.1.2 bus2=p2ulv9204.1.2 switch=n enabled=y phases=2 Linecode=1P_UG_AL_1/0_Brenau_2

New Line.l(r:p2udm4275-p2ulv9652) Units=km Length=0.0144574 bus1=p2udm4275.1.2 bus2=p2ulv9652.1.2 switch=n enabled=y phases=2 Linecode=1P_UG_AL_4/0_Sweetbriar_2

New Line.l(r:p2udm4275-p2udt1167lv) Units=km Length=0.00782768 bus1=p2udt1167lv.1.2 bus2=p2udm4275.1.2 switch=n enabled=y phases=2 Linecode=1P_UG_AL_4/0_Sweetbriar_2

New Line.l(r:p2udm4276-p2ulv13002) Units=km Length=0.0157601 bus1=p2udm4276.1.2 bus2=p2ulv13002.1.2 switch=n enabled=y phases=2 Linecode=1P_UG_AL_1/0_Brenau_2

New Line.l(r:p2udm4273-p2ulv1278) Units=km Length=0.014379 bus1=p2udm4273.1.2 bus2=p2ulv1278.1.2 switch=n enabled=y phases=2 Linecode=1P_UG_AL_4/0_Sweetbriar_2

New Line.l(r:p2udm4273-p2udm4276) Units=km Length=0.00782061 bus1=p2udm4276.1.2 bus2=p2udm4273.1.2 switch=n enabled=y phases=2 Linecode=1P_UG_AL_4/0_Sweetbriar_2

New Line.l(r:p2udm4276-p2udt1167lv) Units=km Length=0.00781353 bus1=p2udt1167lv.1.2 bus2=p2udm4276.1.2 switch=n enabled=y phases=2 Linecode=1P_UG_AL_4/0_Sweetbriar_2

New Line.l(r:p2udt1168lv-p2ulv23417) Units=km Length=0.0175129 bus1=p2udt1168lv.1.2 bus2=p2ulv23417.1.2 switch=n enabled=y phases=2 Linecode=1P_UG_AL_1/0_Brenau_2

New Line.l(r:p2udm4277-p2ulv1279) Units=km Length=0.0154781 bus1=p2udm4277.1.2 bus2=p2ulv1279.1.2 switch=n enabled=y phases=2 Linecode=1P_UG_AL_1/0_Brenau_2

New Line.l(r:p2udm4277-p2ulv13004) Units=km Length=0.0179494 bus1=p2udm4277.1.2 bus2=p2ulv13004.1.2 switch=n enabled=y phases=2 Linecode=1P_UG_AL_1/0_Brenau_2

New Line.l(r:p2udm4277-p2udt1168lv) Units=km Length=0.0092537 bus1=p2udt1168lv.1.2 bus2=p2udm4277.1.2 switch=n enabled=y phases=2 Linecode=1P_UG_AL_4/0_Sweetbriar_2

New Line.l(r:p2udm4279-p2ulv10368) Units=km Length=0.0159086 bus1=p2udm4279.1.2 bus2=p2ulv10368.1.2 switch=n enabled=y phases=2 Linecode=1P_UG_AL_1/0_Brenau_2

New Line.l(r:p2udm4278-p2ulv6120) Units=km Length=0.017917 bus1=p2udm4278.1.2 bus2=p2ulv6120.1.2 switch=n enabled=y phases=2 Linecode=1P_UG_AL_1/0_Brenau_2

New Line.l(r:p2udm4278-p2udm4279) Units=km Length=0.00803318 bus1=p2udm4279.1.2 bus2=p2udm4278.1.2 switch=n enabled=y phases=2 Linecode=1P_UG_AL_1/0_Brenau_2

New Line.l(r:p2udm4279-p2udt1168lv) Units=km Length=0.00924481 bus1=p2udt1168lv.1.2 bus2=p2udm4279.1.2 switch=n enabled=y phases=2 Linecode=1P_UG_AL_4/0_Sweetbriar_2

New Line.l(r:p2udm4282-p2ulv1280) Units=km Length=0.0134764 bus1=p2udm4282.1.2 bus2=p2ulv1280.1.2 switch=n enabled=y phases=2 Linecode=1P_UG_AL_1/0_Brenau_2

New Line.l(r:p2udm4282-p2udt1169lv) Units=km Length=0.0571961 bus1=p2udt1169lv.1.2 bus2=p2udm4282.1.2 switch=n enabled=y phases=2 Linecode=1P_UG_AL_1/0_Brenau_2

New Line.l(r:p2udm4283-p2ulv15045) Units=km Length=0.0135061 bus1=p2udm4283.1.2 bus2=p2ulv15045.1.2 switch=n enabled=y phases=2 Linecode=1P_UG_AL_1/0_Brenau_2

New Line.l(r:p2udm4283-p2udt1169lv) Units=km Length=0.0561857 bus1=p2udt1169lv.1.2 bus2=p2udm4283.1.2 switch=n enabled=y phases=2 Linecode=1P_UG_AL_1/0_Brenau_2

New Line.l(r:p2udt1170lv-p2ulv4446) Units=km Length=0.010487600000000001 bus1=p2udt1170lv.1.2 bus2=p2ulv4446.1.2 switch=n enabled=y phases=2 Linecode=1P_OH_AL_2/0_Rucina_2

New Line.l(r:p2udt1170lv-p2ulv15268) Units=km Length=0.0128672 bus1=p2udt1170lv.1.2 bus2=p2ulv15268.1.2 switch=n enabled=y phases=2 Linecode=1P_OH_AL_2/0_Rucina_2

New Line.l(r:p2udm4284-p2ulv1281) Units=km Length=0.014575700000000002 bus1=p2udm4284.1.2 bus2=p2ulv1281.1.2 switch=n enabled=y phases=2 Linecode=1P_OH_AL_2/0_Rucina_2

New Line.l(r:p2udm4288-p2ulv16209) Units=km Length=0.0133523 bus1=p2udm4288.1.2 bus2=p2ulv16209.1.2 switch=n enabled=y phases=2 Linecode=1P_OH_AL_2/0_Rucina_2

New Line.l(r:p2udm4284-p2udm4288) Units=km Length=0.0169234 bus1=p2udm4284.1.2 bus2=p2udm4288.1.2 switch=n enabled=y phases=2 Linecode=1P_OH_AL_2/0_Rucina_2

New Line.l(r:p2udm4284-p2udt1170lv) Units=km Length=0.0169234 bus1=p2udt1170lv.1.2 bus2=p2udm4284.1.2 switch=n enabled=y phases=2 Linecode=1P_OH_AL_2/0_Rucina_2

New Line.l(r:p2udm4286-p2ulv10369) Units=km Length=0.0138318 bus1=p2udm4286.1.2 bus2=p2ulv10369.1.2 switch=n enabled=y phases=2 Linecode=1P_OH_AL_2/0_Rucina_2

New Line.l(r:p2udm4286-p2udt1170lv) Units=km Length=0.016928 bus1=p2udt1170lv.1.2 bus2=p2udm4286.1.2 switch=n enabled=y phases=2 Linecode=1P_OH_AL_2/0_Rucina_2

New Line.l(r:p2udt1171lv-p2ulv2499) Units=km Length=0.0160014 bus1=p2udt1171lv.1.2 bus2=p2ulv2499.1.2 switch=n enabled=y phases=2 Linecode=1P_UG_AL_1/0_Brenau_2

New Line.l(r:p2udm4289-p2ulv1282) Units=km Length=0.0146689 bus1=p2udm4289.1.2 bus2=p2ulv1282.1.2 switch=n enabled=y phases=2 Linecode=1P_UG_AL_4/0_Sweetbriar_2

New Line.l(r:p2udm4289-p2ulv10620) Units=km Length=0.0152366 bus1=p2udm4289.1.2 bus2=p2ulv10620.1.2 switch=n enabled=y phases=2 Linecode=1P_UG_AL_1/0_Brenau_2

New Line.l(r:p2udm4289-p2udt1171lv) Units=km Length=0.00941237 bus1=p2udt1171lv.1.2 bus2=p2udm4289.1.2 switch=n enabled=y phases=2 Linecode=1P_UG_AL_4/0_Sweetbriar_2

New Line.l(r:p2udm4292-p2ulv13914) Units=km Length=0.0160382 bus1=p2udm4292.1.2 bus2=p2ulv13914.1.2 switch=n enabled=y phases=2 Linecode=1P_UG_AL_1/0_Brenau_2

New Line.l(r:p2udm4292-p2ulv19852) Units=km Length=0.0162795 bus1=p2udm4292.1.2 bus2=p2ulv19852.1.2 switch=n enabled=y phases=2 Linecode=1P_UG_AL_1/0_Brenau_2

New Line.l(r:p2udm4292-p2udt1171lv) Units=km Length=0.0188313 bus1=p2udt1171lv.1.2 bus2=p2udm4292.1.2 switch=n enabled=y phases=2 Linecode=1P_UG_AL_4/0_Sweetbriar_2

New Line.l(r:p2udm4295-p2ulv6630) Units=km Length=0.0152059 bus1=p2udm4295.1.2 bus2=p2ulv6630.1.2 switch=n enabled=y phases=2 Linecode=1P_UG_AL_1/0_Brenau_2

New Line.l(r:p2udm4295-p2udt1172lv) Units=km Length=0.00960921 bus1=p2udt1172lv.1.2 bus2=p2udm4295.1.2 switch=n enabled=y phases=2 Linecode=1P_UG_AL_1/0_Brenau_2

New Line.l(r:p2udm4296-p2ulv7574) Units=km Length=0.0139456 bus1=p2udm4296.1.2 bus2=p2ulv7574.1.2 switch=n enabled=y phases=2 Linecode=1P_UG_AL_1/0_Brenau_2

New Line.l(r:p2udm4294-p2ulv1283) Units=km Length=0.011997400000000002 bus1=p2udm4294.1.2 bus2=p2ulv1283.1.2 switch=n enabled=y phases=2 Linecode=1P_UG_AL_1/0_Brenau_2

New Line.l(r:p2udm4294-p2udm4296) Units=km Length=0.00914536 bus1=p2udm4296.1.2 bus2=p2udm4294.1.2 switch=n enabled=y phases=2 Linecode=1P_UG_AL_1/0_Brenau_2

New Line.l(r:p2udm4296-p2udt1172lv) Units=km Length=0.00960283 bus1=p2udt1172lv.1.2 bus2=p2udm4296.1.2 switch=n enabled=y phases=2 Linecode=1P_UG_AL_4/0_Sweetbriar_2

New Line.l(r:p2udt1395lv-p2ulv12049) Units=km Length=0.014451600000000002 bus1=p2udt1395lv.1.2 bus2=p2ulv12049.1.2 switch=n enabled=y phases=2 Linecode=1P_UG_AL_1/0_Brenau_2

New Line.l(r:p2udt1395lv-p2ulv15715) Units=km Length=0.0139224 bus1=p2udt1395lv.1.2 bus2=p2ulv15715.1.2 switch=n enabled=y phases=2 Linecode=1P_UG_AL_1/0_Brenau_2

New Line.l(r:p2udt1395lv-p2ulv24103) Units=km Length=0.0144243 bus1=p2udt1395lv.1.2 bus2=p2ulv24103.1.2 switch=n enabled=y phases=2 Linecode=1P_UG_AL_1/0_Brenau_2

New Line.l(r:p2udm5116-p2ulv1541) Units=km Length=0.0138732 bus1=p2udm5116.1.2 bus2=p2ulv1541.1.2 switch=n enabled=y phases=2 Linecode=1P_UG_AL_1/0_Brenau_2

New Line.l(r:p2udm5116-p2ulv21403) Units=km Length=0.0138959 bus1=p2udm5116.1.2 bus2=p2ulv21403.1.2 switch=n enabled=y phases=2 Linecode=1P_UG_AL_1/0_Brenau_2

New Line.l(r:p2udm5116-p2udt1395lv) Units=km Length=0.00999585 bus1=p2udt1395lv.1.2 bus2=p2udm5116.1.2 switch=n enabled=y phases=2 Linecode=1P_UG_AL_2/0_Converse_2

New Line.l(r:p2udm5117-p2ulv4692) Units=km Length=0.0144604 bus1=p2udm5117.1.2 bus2=p2ulv4692.1.2 switch=n enabled=y phases=2 Linecode=1P_UG_AL_1/0_Brenau_2

New Line.l(r:p2udm5117-p2udt1395lv) Units=km Length=0.00999585 bus1=p2udt1395lv.1.2 bus2=p2udm5117.1.2 switch=n enabled=y phases=2 Linecode=1P_UG_AL_1/0_Brenau_2

New Line.l(r:p2udt1396lv-p2ulv1542) Units=km Length=0.0345747 bus1=p2udt1396lv.1.2 bus2=p2ulv1542.1.2 switch=n enabled=y phases=2 Linecode=1P_OH_AL_4/0_Zuzara_2

New Line.l(r:p2udm5123-p2ulv23005) Units=km Length=0.0188328 bus1=p2udm5123.1.2 bus2=p2ulv23005.1.2 switch=n enabled=y phases=2 Linecode=1P_OH_AL_2/0_Rucina_2

New Line.l(r:p2udm5123-p2udt1396lv) Units=km Length=0.019329000000000002 bus1=p2udt1396lv.1.2 bus2=p2udm5123.1.2 switch=n enabled=y phases=2 Linecode=1P_OH_AL_2/0_Rucina_2

New Line.l(r:p2udt1397lv-p2ulv1543) Units=km Length=0.026151600000000004 bus1=p2udt1397lv.1.2 bus2=p2ulv1543.1.2 switch=n enabled=y phases=2 Linecode=1P_OH_AL_2/0_Rucina_2

New Line.l(r:p2udt1397lv-p2ulv6121) Units=km Length=0.024641 bus1=p2udt1397lv.1.2 bus2=p2ulv6121.1.2 switch=n enabled=y phases=2 Linecode=1P_OH_AL_2/0_Rucina_2

New Line.l(r:p2udt1397lv-p2ulv12761) Units=km Length=0.0261032 bus1=p2udt1397lv.1.2 bus2=p2ulv12761.1.2 switch=n enabled=y phases=2 Linecode=1P_OH_AL_2/0_Rucina_2

New Line.l(r:p2udt1397lv-p2ulv20932) Units=km Length=0.0244073 bus1=p2udt1397lv.1.2 bus2=p2ulv20932.1.2 switch=n enabled=y phases=2 Linecode=1P_OH_AL_2/0_Rucina_2

New Line.l(r:p2udt1398lv-p2ulv1545) Units=km Length=0.0159809 bus1=p2udt1398lv.1.2 bus2=p2ulv1545.1.2 switch=n enabled=y phases=2 Linecode=1P_UG_AL_1/0_Brenau_2

New Line.l(r:p2udt1399lv-p2ulv19140) Units=km Length=0.0153901 bus1=p2udt1399lv.1.2 bus2=p2ulv19140.1.2 switch=n enabled=y phases=2 Linecode=1P_UG_AL_1/0_Brenau_2

New Line.l(r:p2udm5129-p2ulv1546) Units=km Length=0.0138385 bus1=p2udm5129.1.2 bus2=p2ulv1546.1.2 switch=n enabled=y phases=2 Linecode=1P_UG_AL_1/0_Brenau_2

New Line.l(r:p2udm5129-p2udt1399lv) Units=km Length=0.00715793 bus1=p2udt1399lv.1.2 bus2=p2udm5129.1.2 switch=n enabled=y phases=2 Linecode=1P_UG_AL_1/0_Brenau_2

New Line.l(r:p2udt1400lv-p2ulv1547) Units=km Length=0.0308941 bus1=p2udt1400lv.1.2 bus2=p2ulv1547.1.2 switch=n enabled=y phases=2 Linecode=1P_UG_AL_4/0_Sweetbriar_2

New Line.l(r:p2udt1574lv-p2ulv24096) Units=km Length=0.015175300000000001 bus1=p2udt1574lv.1.2 bus2=p2ulv24096.1.2 switch=n enabled=y phases=2 Linecode=1P_UG_AL_1/0_Brenau_2

New Line.l(r:p2udm5731-p2ulv13230) Units=km Length=0.0139249 bus1=p2udm5731.1.2 bus2=p2ulv13230.1.2 switch=n enabled=y phases=2 Linecode=1P_UG_AL_1/0_Brenau_2

New Line.l(r:p2udm5731-p2ulv21843) Units=km Length=0.0153411 bus1=p2udm5731.1.2 bus2=p2ulv21843.1.2 switch=n enabled=y phases=2 Linecode=1P_UG_AL_1/0_Brenau_2

New Line.l(r:p2udm5731-p2ulv22760) Units=km Length=0.0150902 bus1=p2udm5731.1.2 bus2=p2ulv22760.1.2 switch=n enabled=y phases=2 Linecode=1P_UG_AL_1/0_Brenau_2

New Line.l(r:p2udm5731-p2udt1574lv) Units=km Length=0.0095832 bus1=p2udt1574lv.1.2 bus2=p2udm5731.1.2 switch=n enabled=y phases=2 Linecode=1P_UG_AL_4/0_Sweetbriar_2

New Line.l(r:p2udm5732-p2ulv16424) Units=km Length=0.0150473 bus1=p2udm5732.1.2 bus2=p2ulv16424.1.2 switch=n enabled=y phases=2 Linecode=1P_UG_AL_1/0_Brenau_2

New Line.l(r:p2udm5730-p2ulv1754) Units=km Length=0.0140165 bus1=p2udm5730.1.2 bus2=p2ulv1754.1.2 switch=n enabled=y phases=2 Linecode=1P_UG_AL_1/0_Brenau_2

New Line.l(r:p2udm5730-p2udm5732) Units=km Length=0.009983310000000002 bus1=p2udm5732.1.2 bus2=p2udm5730.1.2 switch=n enabled=y phases=2 Linecode=1P_UG_AL_1/0_Brenau_2

New Line.l(r:p2udm5732-p2udt1574lv) Units=km Length=0.009585740000000002 bus1=p2udt1574lv.1.2 bus2=p2udm5732.1.2 switch=n enabled=y phases=2 Linecode=1P_UG_AL_4/0_Sweetbriar_2

New Line.l(r:p2udt1584lv-p2ulv1765) Units=km Length=0.026384 bus1=p2udt1584lv.1.2 bus2=p2ulv1765.1.2 switch=n enabled=y phases=2 Linecode=1P_OH_AL_2/0_Rucina_2

New Line.l(r:p2udt1584lv-p2ulv11335) Units=km Length=0.0245534 bus1=p2udt1584lv.1.2 bus2=p2ulv11335.1.2 switch=n enabled=y phases=2 Linecode=1P_OH_AL_2/0_Rucina_2

New Line.l(r:p2udt1584lv-p2ulv15953) Units=km Length=0.0225548 bus1=p2udt1584lv.1.2 bus2=p2ulv15953.1.2 switch=n enabled=y phases=2 Linecode=1P_OH_AL_2/0_Rucina_2

New Line.l(r:p2udt1587lv-p2ulv1768) Units=km Length=0.0267845 bus1=p2udt1587lv.1.2 bus2=p2ulv1768.1.2 switch=n enabled=y phases=2 Linecode=1P_OH_AL_2/0_Rucina_2

New Line.l(r:p2udt1587lv-p2ulv16653) Units=km Length=0.0244598 bus1=p2udt1587lv.1.2 bus2=p2ulv16653.1.2 switch=n enabled=y phases=2 Linecode=1P_OH_AL_2/0_Rucina_2

New Line.l(r:p2udt1587lv-p2ulv20059) Units=km Length=0.0774006 bus1=p2udt1587lv.1.2 bus2=p2ulv20059.1.2 switch=n enabled=y phases=2 Linecode=1P_OH_AL_4/0_Zuzara_2

New Line.l(r:p2udt1775lv-p2ulv24102) Units=km Length=0.0160319 bus1=p2udt1775lv.1.2 bus2=p2ulv24102.1.2 switch=n enabled=y phases=2 Linecode=1P_UG_AL_1/0_Brenau_2

New Line.l(r:p2udm6440-p2ulv2007) Units=km Length=0.0170205 bus1=p2udm6440.1.2 bus2=p2ulv2007.1.2 switch=n enabled=y phases=2 Linecode=1P_UG_AL_1/0_Brenau_2

New Line.l(r:p2udm6440-p2ulv6628) Units=km Length=0.0173592 bus1=p2udm6440.1.2 bus2=p2ulv6628.1.2 switch=n enabled=y phases=2 Linecode=1P_UG_AL_1/0_Brenau_2

New Line.l(r:p2udm6440-p2udt1775lv) Units=km Length=0.0092537 bus1=p2udt1775lv.1.2 bus2=p2udm6440.1.2 switch=n enabled=y phases=2 Linecode=1P_UG_AL_4/0_Sweetbriar_2

New Line.l(r:p2udm6442-p2ulv9205) Units=km Length=0.0158737 bus1=p2udm6442.1.2 bus2=p2ulv9205.1.2 switch=n enabled=y phases=2 Linecode=1P_UG_AL_1/0_Brenau_2

New Line.l(r:p2udm6442-p2ulv12270) Units=km Length=0.014691 bus1=p2udm6442.1.2 bus2=p2ulv12270.1.2 switch=n enabled=y phases=2 Linecode=1P_UG_AL_1/0_Brenau_2

New Line.l(r:p2udm6442-p2udt1775lv) Units=km Length=0.0184985 bus1=p2udt1775lv.1.2 bus2=p2udm6442.1.2 switch=n enabled=y phases=2 Linecode=1P_UG_AL_4/0_Sweetbriar_2

New Line.l(r:p2udm6445-p2ulv2008) Units=km Length=0.0139427 bus1=p2udm6445.1.2 bus2=p2ulv2008.1.2 switch=n enabled=y phases=2 Linecode=1P_UG_AL_4/0_Sweetbriar_2

New Line.l(r:p2udm6445-p2ulv19626) Units=km Length=0.0147815 bus1=p2udm6445.1.2 bus2=p2ulv19626.1.2 switch=n enabled=y phases=2 Linecode=1P_UG_AL_1/0_Brenau_2

New Line.l(r:p2udm6445-p2udt1776lv) Units=km Length=0.00951249 bus1=p2udt1776lv.1.2 bus2=p2udm6445.1.2 switch=n enabled=y phases=2 Linecode=1P_UG_AL_4/0_Sweetbriar_2

New Line.l(r:p2udm6446-p2ulv6842) Units=km Length=0.0145273 bus1=p2udm6446.1.2 bus2=p2ulv6842.1.2 switch=n enabled=y phases=2 Linecode=1P_UG_AL_4/0_Sweetbriar_2

New Line.l(r:p2udm6446-p2ulv11338) Units=km Length=0.0154413 bus1=p2udm6446.1.2 bus2=p2ulv11338.1.2 switch=n enabled=y phases=2 Linecode=1P_UG_AL_1/0_Brenau_2

New Line.l(r:p2udm6446-p2udt1776lv) Units=km Length=0.00951557 bus1=p2udt1776lv.1.2 bus2=p2udm6446.1.2 switch=n enabled=y phases=2 Linecode=1P_UG_AL_4/0_Sweetbriar_2

New Line.l(r:p2udt1961lv-p2ulv2241) Units=km Length=0.0165485 bus1=p2udt1961lv.1.2 bus2=p2ulv2241.1.2 switch=n enabled=y phases=2 Linecode=1P_UG_AL_1/0_Brenau_2

New Line.l(r:p2udt1961lv-p2ulv2242) Units=km Length=0.0172161 bus1=p2udt1961lv.1.2 bus2=p2ulv2242.1.2 switch=n enabled=y phases=2 Linecode=1P_UG_AL_1/0_Brenau_2

New Line.l(r:p2udt1961lv-p2ulv16207) Units=km Length=0.0158836 bus1=p2udt1961lv.1.2 bus2=p2ulv16207.1.2 switch=n enabled=y phases=2 Linecode=1P_UG_AL_1/0_Brenau_2

New Line.l(r:p2udm7095-p2ulv7572) Units=km Length=0.0172799 bus1=p2udm7095.1.2 bus2=p2ulv7572.1.2 switch=n enabled=y phases=2 Linecode=1P_UG_AL_1/0_Brenau_2

New Line.l(r:p2udm7095-p2udt1961lv) Units=km Length=0.00967961 bus1=p2udt1961lv.1.2 bus2=p2udm7095.1.2 switch=n enabled=y phases=2 Linecode=1P_UG_AL_1/0_Brenau_2

New Line.l(r:p2udt1962lv-p2ulv18681) Units=km Length=0.0161351 bus1=p2udt1962lv.1.2 bus2=p2ulv18681.1.2 switch=n enabled=y phases=2 Linecode=1P_UG_AL_1/0_Brenau_2

New Line.l(r:p2udm7097-p2ulv2243) Units=km Length=0.0173517 bus1=p2udm7097.1.2 bus2=p2ulv2243.1.2 switch=n enabled=y phases=2 Linecode=1P_UG_AL_1/0_Brenau_2

New Line.l(r:p2udm7098-p2ulv5390) Units=km Length=0.0163742 bus1=p2udm7098.1.2 bus2=p2ulv5390.1.2 switch=n enabled=y phases=2 Linecode=1P_UG_AL_1/0_Brenau_2

New Line.l(r:p2udm7097-p2udm7098) Units=km Length=0.0080239 bus1=p2udm7097.1.2 bus2=p2udm7098.1.2 switch=n enabled=y phases=2 Linecode=1P_UG_AL_1/0_Brenau_2

New Line.l(r:p2udm7097-p2udt1962lv) Units=km Length=0.00786125 bus1=p2udt1962lv.1.2 bus2=p2udm7097.1.2 switch=n enabled=y phases=2 Linecode=1P_UG_AL_4/0_Sweetbriar_2

New Line.l(r:p2udm7100-p2ulv19621) Units=km Length=0.017384 bus1=p2udm7100.1.2 bus2=p2ulv19621.1.2 switch=n enabled=y phases=2 Linecode=1P_UG_AL_1/0_Brenau_2

New Line.l(r:p2udm7100-p2udt1962lv) Units=km Length=0.00786125 bus1=p2udt1962lv.1.2 bus2=p2udm7100.1.2 switch=n enabled=y phases=2 Linecode=1P_UG_AL_1/0_Brenau_2

New Line.l(r:p2udt1963lv-p2ulv2244) Units=km Length=0.01355 bus1=p2udt1963lv.1.2 bus2=p2ulv2244.1.2 switch=n enabled=y phases=2 Linecode=1P_UG_AL_1/0_Brenau_2

New Line.l(r:p2udt1963lv-p2ulv19622) Units=km Length=0.0133525 bus1=p2udt1963lv.1.2 bus2=p2ulv19622.1.2 switch=n enabled=y phases=2 Linecode=1P_UG_AL_1/0_Brenau_2

New Line.l(r:p2udt1964lv-p2ulv9653) Units=km Length=0.028821 bus1=p2udt1964lv.1.2 bus2=p2ulv9653.1.2 switch=n enabled=y phases=2 Linecode=1P_OH_AL_4/0_Zuzara_2

New Line.l(r:p2udm7103-p2ulv2245) Units=km Length=0.0210015 bus1=p2udm7103.1.2 bus2=p2ulv2245.1.2 switch=n enabled=y phases=2 Linecode=1P_OH_AL_2/0_Rucina_2

New Line.l(r:p2udm7105-p2ulv9207) Units=km Length=0.0261312 bus1=p2udm7105.1.2 bus2=p2ulv9207.1.2 switch=n enabled=y phases=2 Linecode=1P_OH_AL_2/0_Rucina_2

New Line.l(r:p2udm7103-p2udm7105) Units=km Length=0.0593261 bus1=p2udm7103.1.2 bus2=p2udm7105.1.2 switch=n enabled=y phases=2 Linecode=1P_OH_AL_4/0_Zuzara_2

New Line.l(r:p2udm7103-p2udt1964lv) Units=km Length=0.0197754 bus1=p2udt1964lv.1.2 bus2=p2udm7103.1.2 switch=n enabled=y phases=2 Linecode=1P_OH_AL_2/0_Rucina_2

New Line.l(r:p2udm7107-p2ulv22769) Units=km Length=0.0319427 bus1=p2udm7107.1.2 bus2=p2ulv22769.1.2 switch=n enabled=y phases=2 Linecode=1P_OH_AL_4/0_Zuzara_2

New Line.l(r:p2udm7104-p2ulv8963) Units=km Length=0.032787300000000005 bus1=p2udm7104.1.2 bus2=p2ulv8963.1.2 switch=n enabled=y phases=2 Linecode=1P_OH_AL_4/0_Zuzara_2

New Line.l(r:p2udm7104-p2udm7107) Units=km Length=0.0197754 bus1=p2udm7107.1.2 bus2=p2udm7104.1.2 switch=n enabled=y phases=2 Linecode=1P_OH_AL_2/0_Rucina_2

New Line.l(r:p2udm7107-p2udt1964lv) Units=km Length=0.0197659 bus1=p2udt1964lv.1.2 bus2=p2udm7107.1.2 switch=n enabled=y phases=2 Linecode=1P_OH_AL_2/0_Rucina_2

New Line.l(r:p2udm7108-p2ulv2246) Units=km Length=0.0159102 bus1=p2udm7108.1.2 bus2=p2ulv2246.1.2 switch=n enabled=y phases=2 Linecode=1P_UG_AL_1/0_Brenau_2

New Line.l(r:p2udm7108-p2ulv12271) Units=km Length=0.0137186 bus1=p2udm7108.1.2 bus2=p2ulv12271.1.2 switch=n enabled=y phases=2 Linecode=1P_UG_AL_1/0_Brenau_2

New Line.l(r:p2udm7108-p2udt1965lv) Units=km Length=0.00941237 bus1=p2udt1965lv.1.2 bus2=p2udm7108.1.2 switch=n enabled=y phases=2 Linecode=1P_UG_AL_4/0_Sweetbriar_2

New Line.l(r:p2udm7109-p2ulv4694) Units=km Length=0.0142732 bus1=p2udm7109.1.2 bus2=p2ulv4694.1.2 switch=n enabled=y phases=2 Linecode=1P_UG_AL_1/0_Brenau_2

New Line.l(r:p2udm7111-p2ulv16210) Units=km Length=0.013766300000000002 bus1=p2udm7111.1.2 bus2=p2ulv16210.1.2 switch=n enabled=y phases=2 Linecode=1P_UG_AL_1/0_Brenau_2

New Line.l(r:p2udm7109-p2udm7111) Units=km Length=0.00941237 bus1=p2udm7109.1.2 bus2=p2udm7111.1.2 switch=n enabled=y phases=2 Linecode=1P_UG_AL_1/0_Brenau_2

New Line.l(r:p2udm7109-p2udt1965lv) Units=km Length=0.00942192 bus1=p2udt1965lv.1.2 bus2=p2udm7109.1.2 switch=n enabled=y phases=2 Linecode=1P_UG_AL_4/0_Sweetbriar_2

New Line.l(r:p2udt2141lv-p2ulv2496) Units=km Length=0.021851400000000003 bus1=p2udt2141lv.1.2 bus2=p2ulv2496.1.2 switch=n enabled=y phases=2 Linecode=1P_OH_AL_2/0_Rucina_2

New Line.l(r:p2udt2141lv-p2ulv10617) Units=km Length=0.0211195 bus1=p2udt2141lv.1.2 bus2=p2ulv10617.1.2 switch=n enabled=y phases=2 Linecode=1P_OH_AL_2/0_Rucina_2

New Line.l(r:p2udt2141lv-p2ulv21627) Units=km Length=0.0214714 bus1=p2udt2141lv.1.2 bus2=p2ulv21627.1.2 switch=n enabled=y phases=2 Linecode=1P_OH_AL_2/0_Rucina_2

New Line.l(r:p2udm7695-p2ulv22082) Units=km Length=0.0193092 bus1=p2udm7695.1.2 bus2=p2ulv22082.1.2 switch=n enabled=y phases=2 Linecode=1P_UG_AL_1/0_Brenau_2

New Line.l(r:p2udm7696-p2ulv23002) Units=km Length=0.0133357 bus1=p2udm7696.1.2 bus2=p2ulv23002.1.2 switch=n enabled=y phases=2 Linecode=1P_UG_AL_1/0_Brenau_2

New Line.l(r:p2udm7695-p2udm7696) Units=km Length=0.019941800000000003 bus1=p2udm7695.1.2 bus2=p2udm7696.1.2 switch=n enabled=y phases=2 Linecode=1P_UG_AL_1/0_Brenau_2

New Line.l(r:p2udm7695-p2udt2141lv) Units=km Length=0.00996653 bus1=p2udt2141lv.1.2 bus2=p2udm7695.1.2 switch=n enabled=y phases=2 Linecode=1P_OH_AL_2/0_Rucina_2

New Line.l(r:p2udt2142lv-p2ulv2497) Units=km Length=0.0327808 bus1=p2udt2142lv.1.2 bus2=p2ulv2497.1.2 switch=n enabled=y phases=2 Linecode=1P_OH_AL_4/0_Zuzara_2

New Line.l(r:p2udt2142lv-p2ulv3453) Units=km Length=0.0333639 bus1=p2udt2142lv.1.2 bus2=p2ulv3453.1.2 switch=n enabled=y phases=2 Linecode=1P_OH_AL_4/0_Zuzara_2

New Line.l(r:p2udt2142lv-p2ulv18022) Units=km Length=0.0109173 bus1=p2udt2142lv.1.2 bus2=p2ulv18022.1.2 switch=n enabled=y phases=2 Linecode=1P_OH_AL_2/0_Rucina_2

New Line.l(r:p2udt2143lv-p2ulv17125) Units=km Length=0.0139789 bus1=p2udt2143lv.1.2 bus2=p2ulv17125.1.2 switch=n enabled=y phases=2 Linecode=1P_OH_AL_2/0_Rucina_2

New Line.l(r:p2udt2143lv-p2ulv18684) Units=km Length=0.0127729 bus1=p2udt2143lv.1.2 bus2=p2ulv18684.1.2 switch=n enabled=y phases=2 Linecode=1P_OH_AL_2/0_Rucina_2

New Line.l(r:p2udm7700-p2ulv2498) Units=km Length=0.0135525 bus1=p2udm7700.1.2 bus2=p2ulv2498.1.2 switch=n enabled=y phases=2 Linecode=1P_OH_AL_2/0_Rucina_2

New Line.l(r:p2udm7700-p2ulv20512) Units=km Length=0.0135279 bus1=p2udm7700.1.2 bus2=p2ulv20512.1.2 switch=n enabled=y phases=2 Linecode=1P_OH_AL_2/0_Rucina_2

New Line.l(r:p2udm7700-p2udt2143lv) Units=km Length=0.0143273 bus1=p2udt2143lv.1.2 bus2=p2udm7700.1.2 switch=n enabled=y phases=2 Linecode=1P_OH_AL_2/0_Rucina_2

New Line.l(r:p2udm7703-p2ulv19384) Units=km Length=0.017339 bus1=p2udm7703.1.2 bus2=p2ulv19384.1.2 switch=n enabled=y phases=2 Linecode=1P_UG_AL_1/0_Brenau_2

New Line.l(r:p2udm7703-p2udt2143lv) Units=km Length=0.09897260000000001 bus1=p2udt2143lv.1.2 bus2=p2udm7703.1.2 switch=n enabled=y phases=2 Linecode=1P_OH_AL_4/0_Zuzara_2

New Line.l(r:p2udt2327lv-p2ulv2749) Units=km Length=0.0144806 bus1=p2udt2327lv.1.2 bus2=p2ulv2749.1.2 switch=n enabled=y phases=2 Linecode=1P_UG_AL_1/0_Brenau_2

New Line.l(r:p2udm8321-p2ulv16646) Units=km Length=0.0143221 bus1=p2udm8321.1.2 bus2=p2ulv16646.1.2 switch=n enabled=y phases=2 Linecode=1P_UG_AL_1/0_Brenau_2

New Line.l(r:p2udm8321-p2udt2327lv) Units=km Length=0.00918357 bus1=p2udt2327lv.1.2 bus2=p2udm8321.1.2 switch=n enabled=y phases=2 Linecode=1P_UG_AL_1/0_Brenau_2

New Line.l(r:p2udt2334lv-p2ulv14579) Units=km Length=0.013174300000000002 bus1=p2udt2334lv.1.2 bus2=p2ulv14579.1.2 switch=n enabled=y phases=2 Linecode=1P_UG_AL_1/0_Brenau_2

New Line.l(r:p2udm8346-p2ulv2759) Units=km Length=0.0148164 bus1=p2udm8346.1.2 bus2=p2ulv2759.1.2 switch=n enabled=y phases=2 Linecode=1P_UG_AL_4/0_Sweetbriar_2

New Line.l(r:p2udm8346-p2udt2334lv) Units=km Length=0.008904350000000002 bus1=p2udt2334lv.1.2 bus2=p2udm8346.1.2 switch=n enabled=y phases=2 Linecode=1P_UG_AL_4/0_Sweetbriar_2

New Line.l(r:p2udm8348-p2ulv23625) Units=km Length=0.0143632 bus1=p2udm8348.1.2 bus2=p2ulv23625.1.2 switch=n enabled=y phases=2 Linecode=1P_UG_AL_1/0_Brenau_2

New Line.l(r:p2udm8348-p2udt2334lv) Units=km Length=0.00719414 bus1=p2udt2334lv.1.2 bus2=p2udm8348.1.2 switch=n enabled=y phases=2 Linecode=1P_UG_AL_1/0_Brenau_2

New Line.l(r:p2udt2335lv-p2ulv11116) Units=km Length=0.0135791 bus1=p2udt2335lv.1.2 bus2=p2ulv11116.1.2 switch=n enabled=y phases=2 Linecode=1P_UG_AL_1/0_Brenau_2

New Line.l(r:p2udm8349-p2ulv2761) Units=km Length=0.0145523 bus1=p2udm8349.1.2 bus2=p2ulv2761.1.2 switch=n enabled=y phases=2 Linecode=1P_UG_AL_1/0_Brenau_2

New Line.l(r:p2udm8349-p2udt2335lv) Units=km Length=0.0094431 bus1=p2udt2335lv.1.2 bus2=p2udm8349.1.2 switch=n enabled=y phases=2 Linecode=1P_UG_AL_1/0_Brenau_2

New Line.l(r:p2udm8351-p2ulv14808) Units=km Length=0.0148484 bus1=p2udm8351.1.2 bus2=p2ulv14808.1.2 switch=n enabled=y phases=2 Linecode=1P_UG_AL_1/0_Brenau_2

New Line.l(r:p2udm8351-p2ulv17126) Units=km Length=0.0143191 bus1=p2udm8351.1.2 bus2=p2ulv17126.1.2 switch=n enabled=y phases=2 Linecode=1P_UG_AL_4/0_Sweetbriar_2

New Line.l(r:p2udm8351-p2udt2335lv) Units=km Length=0.00943665 bus1=p2udt2335lv.1.2 bus2=p2udm8351.1.2 switch=n enabled=y phases=2 Linecode=1P_UG_AL_4/0_Sweetbriar_2

New Line.l(r:p2udt2336lv-p2ulv2762) Units=km Length=0.015589700000000001 bus1=p2udt2336lv.1.2 bus2=p2ulv2762.1.2 switch=n enabled=y phases=2 Linecode=1P_UG_AL_4/0_Sweetbriar_2

New Line.l(r:p2udt2508lv-p2ulv9442) Units=km Length=0.0144953 bus1=p2udt2508lv.1.2 bus2=p2ulv9442.1.2 switch=n enabled=y phases=2 Linecode=1P_UG_AL_1/0_Brenau_2

New Line.l(r:p2udt2508lv-p2ulv12051) Units=km Length=0.0222238 bus1=p2udt2508lv.1.2 bus2=p2ulv12051.1.2 switch=n enabled=y phases=2 Linecode=1P_UG_AL_1/0_Brenau_2

New Line.l(r:p2udm8920-p2ulv3004) Units=km Length=0.0133779 bus1=p2udm8920.1.2 bus2=p2ulv3004.1.2 switch=n enabled=y phases=2 Linecode=1P_UG_AL_1/0_Brenau_2

New Line.l(r:p2udm8924-p2ulv12050) Units=km Length=0.013798 bus1=p2udm8924.1.2 bus2=p2ulv12050.1.2 switch=n enabled=y phases=2 Linecode=1P_UG_AL_1/0_Brenau_2

New Line.l(r:p2udm8920-p2udm8924) Units=km Length=0.00951866 bus1=p2udm8920.1.2 bus2=p2udm8924.1.2 switch=n enabled=y phases=2 Linecode=1P_UG_AL_1/0_Brenau_2

New Line.l(r:p2udm8920-p2udt2508lv) Units=km Length=0.00863473 bus1=p2udt2508lv.1.2 bus2=p2udm8920.1.2 switch=n enabled=y phases=2 Linecode=1P_UG_AL_4/0_Sweetbriar_2

New Line.l(r:p2udm8923-p2ulv11337) Units=km Length=0.019921000000000005 bus1=p2udm8923.1.2 bus2=p2ulv11337.1.2 switch=n enabled=y phases=2 Linecode=1P_UG_AL_1/0_Brenau_2

New Line.l(r:p2udm8921-p2ulv5887) Units=km Length=0.024866 bus1=p2udm8921.1.2 bus2=p2ulv5887.1.2 switch=n enabled=y phases=2 Linecode=1P_UG_AL_1/0_Brenau_2

New Line.l(r:p2udm8921-p2udm8923) Units=km Length=0.00863473 bus1=p2udm8923.1.2 bus2=p2udm8921.1.2 switch=n enabled=y phases=2 Linecode=1P_UG_AL_1/0_Brenau_2

New Line.l(r:p2udm8923-p2udt2508lv) Units=km Length=0.0172615 bus1=p2udt2508lv.1.2 bus2=p2udm8923.1.2 switch=n enabled=y phases=2 Linecode=1P_UG_AL_4/0_Sweetbriar_2

New Line.l(r:p2udm8926-p2ulv3005) Units=km Length=0.0244597 bus1=p2udm8926.1.2 bus2=p2ulv3005.1.2 switch=n enabled=y phases=2 Linecode=1P_UG_AL_1/0_Brenau_2

New Line.l(r:p2udm8926-p2udt2509lv) Units=km Length=0.00951557 bus1=p2udt2509lv.1.2 bus2=p2udm8926.1.2 switch=n enabled=y phases=2 Linecode=1P_UG_AL_1/0_Brenau_2

New Line.l(r:p2udm8927-p2ulv13488) Units=km Length=0.0142586 bus1=p2udm8927.1.2 bus2=p2ulv13488.1.2 switch=n enabled=y phases=2 Linecode=1P_UG_AL_1/0_Brenau_2

New Line.l(r:p2udm8927-p2ulv14807) Units=km Length=0.0136312 bus1=p2udm8927.1.2 bus2=p2ulv14807.1.2 switch=n enabled=y phases=2 Linecode=1P_UG_AL_1/0_Brenau_2

New Line.l(r:p2udm8927-p2ulv15269) Units=km Length=0.0145846 bus1=p2udm8927.1.2 bus2=p2ulv15269.1.2 switch=n enabled=y phases=2 Linecode=1P_UG_AL_4/0_Sweetbriar_2

New Line.l(r:p2udm8927-p2udt2509lv) Units=km Length=0.00951249 bus1=p2udt2509lv.1.2 bus2=p2udm8927.1.2 switch=n enabled=y phases=2 Linecode=1P_UG_AL_4/0_Sweetbriar_2

New Line.l(r:p2udm8930-p2ulv3006) Units=km Length=0.0126694 bus1=p2udm8930.1.2 bus2=p2ulv3006.1.2 switch=n enabled=y phases=2 Linecode=1P_UG_AL_1/0_Brenau_2

New Line.l(r:p2udm8930-p2udt2510lv) Units=km Length=0.0198002 bus1=p2udt2510lv.1.2 bus2=p2udm8930.1.2 switch=n enabled=y phases=2 Linecode=1P_UG_AL_1/0_Brenau_2

New Line.l(r:p2udm8932-p2ulv21630) Units=km Length=0.0148026 bus1=p2udm8932.1.2 bus2=p2ulv21630.1.2 switch=n enabled=y phases=2 Linecode=1P_UG_AL_1/0_Brenau_2

New Line.l(r:p2udm8931-p2ulv21152) Units=km Length=0.013943900000000002 bus1=p2udm8931.1.2 bus2=p2ulv21152.1.2 switch=n enabled=y phases=2 Linecode=1P_UG_AL_1/0_Brenau_2

New Line.l(r:p2udm8931-p2udm8932) Units=km Length=0.00990484 bus1=p2udm8932.1.2 bus2=p2udm8931.1.2 switch=n enabled=y phases=2 Linecode=1P_UG_AL_1/0_Brenau_2

New Line.l(r:p2udm8932-p2udt2510lv) Units=km Length=0.00990484 bus1=p2udt2510lv.1.2 bus2=p2udm8932.1.2 switch=n enabled=y phases=2 Linecode=1P_UG_AL_4/0_Sweetbriar_2

New Line.l(r:p2udt2511lv-p2ulv3007) Units=km Length=0.015371 bus1=p2udt2511lv.1.2 bus2=p2ulv3007.1.2 switch=n enabled=y phases=2 Linecode=1P_UG_AL_1/0_Brenau_2

New Line.l(r:p2udt2511lv-p2ulv3452) Units=km Length=0.0154235 bus1=p2udt2511lv.1.2 bus2=p2ulv3452.1.2 switch=n enabled=y phases=2 Linecode=1P_UG_AL_1/0_Brenau_2

New Line.l(r:p2udt2512lv-p2ulv5652) Units=km Length=0.0548489 bus1=p2udt2512lv.1.2 bus2=p2ulv5652.1.2 switch=n enabled=y phases=2 Linecode=1P_OH_AL_4/0_Zuzara_2

New Line.l(r:p2udm8935-p2ulv3008) Units=km Length=0.0813485 bus1=p2udm8935.1.2 bus2=p2ulv3008.1.2 switch=n enabled=y phases=2 Linecode=1P_OH_AL_4/0_Zuzara_2

New Line.l(r:p2udm8935-p2udt2512lv) Units=km Length=0.019052400000000004 bus1=p2udt2512lv.1.2 bus2=p2udm8935.1.2 switch=n enabled=y phases=2 Linecode=1P_OH_AL_2/0_Rucina_2

New Line.l(r:p2udt2661lv-p2ulv3239) Units=km Length=0.012513200000000002 bus1=p2udt2661lv.1.2 bus2=p2ulv3239.1.2 switch=n enabled=y phases=2 Linecode=1P_UG_AL_1/0_Brenau_2

New Line.l(r:p2udt2661lv-p2ulv8529) Units=km Length=0.0152028 bus1=p2udt2661lv.1.2 bus2=p2ulv8529.1.2 switch=n enabled=y phases=2 Linecode=1P_UG_AL_4/0_Sweetbriar_2

New Line.l(r:p2udm9383-p2ulv3240) Units=km Length=0.013443300000000002 bus1=p2udm9383.1.2 bus2=p2ulv3240.1.2 switch=n enabled=y phases=2 Linecode=1P_UG_AL_1/0_Brenau_2

New Line.l(r:p2udm9383-p2udt2661lv) Units=km Length=0.00996653 bus1=p2udt2661lv.1.2 bus2=p2udm9383.1.2 switch=n enabled=y phases=2 Linecode=1P_UG_AL_1/0_Brenau_2

New Line.l(r:p2udm9384-p2ulv8076) Units=km Length=0.0143965 bus1=p2udm9384.1.2 bus2=p2ulv8076.1.2 switch=n enabled=y phases=2 Linecode=1P_UG_AL_1/0_Brenau_2

New Line.l(r:p2udm9384-p2udt2661lv) Units=km Length=0.0099753 bus1=p2udt2661lv.1.2 bus2=p2udm9384.1.2 switch=n enabled=y phases=2 Linecode=1P_UG_AL_1/0_Brenau_2

New Line.l(r:p2udm9388-p2ulv15952) Units=km Length=0.0133949 bus1=p2udm9388.1.2 bus2=p2ulv15952.1.2 switch=n enabled=y phases=2 Linecode=1P_OH_AL_2/0_Rucina_2

New Line.l(r:p2udm9386-p2ulv3241) Units=km Length=0.0150292 bus1=p2udm9386.1.2 bus2=p2ulv3241.1.2 switch=n enabled=y phases=2 Linecode=1P_OH_AL_2/0_Rucina_2

New Line.l(r:p2udm9386-p2udm9388) Units=km Length=0.014538300000000002 bus1=p2udm9388.1.2 bus2=p2udm9386.1.2 switch=n enabled=y phases=2 Linecode=1P_OH_AL_2/0_Rucina_2

New Line.l(r:p2udm9388-p2udt2662lv) Units=km Length=0.010489000000000002 bus1=p2udt2662lv.1.2 bus2=p2udm9388.1.2 switch=n enabled=y phases=2 Linecode=1P_OH_AL_2/0_Rucina_2

New Line.l(r:p2udm9389-p2ulv22318) Units=km Length=0.0166288 bus1=p2udm9389.1.2 bus2=p2ulv22318.1.2 switch=n enabled=y phases=2 Linecode=1P_OH_AL_2/0_Rucina_2

New Line.l(r:p2udm9387-p2ulv9441) Units=km Length=0.0133109 bus1=p2udm9387.1.2 bus2=p2ulv9441.1.2 switch=n enabled=y phases=2 Linecode=1P_OH_AL_2/0_Rucina_2

New Line.l(r:p2udm9387-p2udm9389) Units=km Length=0.00725069 bus1=p2udm9389.1.2 bus2=p2udm9387.1.2 switch=n enabled=y phases=2 Linecode=1P_OH_AL_2/0_Rucina_2

New Line.l(r:p2udm9389-p2udt2662lv) Units=km Length=0.00705817 bus1=p2udt2662lv.1.2 bus2=p2udm9389.1.2 switch=n enabled=y phases=2 Linecode=1P_OH_AL_2/0_Rucina_2

New Line.l(r:p2udt2792lv-p2ulv3454) Units=km Length=0.001 bus1=p2udt2792lv.1.2 bus2=p2ulv3454.1.2 switch=n enabled=y phases=2 Linecode=1P_OH_AL_4_Periwinkle_2

New Line.l(r:p2udm10421-p2ulv3709) Units=km Length=0.014096900000000002 bus1=p2udm10421.1.2 bus2=p2ulv3709.1.2 switch=n enabled=y phases=2 Linecode=1P_OH_AL_2/0_Rucina_2

New Line.l(r:p2udm10421-p2udt2952lv) Units=km Length=0.0380551 bus1=p2udt2952lv.1.2 bus2=p2udm10421.1.2 switch=n enabled=y phases=2 Linecode=1P_OH_AL_4/0_Zuzara_2

New Line.l(r:p2udm10422-p2ulv8534) Units=km Length=0.0124236 bus1=p2udm10422.1.2 bus2=p2ulv8534.1.2 switch=n enabled=y phases=2 Linecode=1P_OH_AL_2/0_Rucina_2

New Line.l(r:p2udm10422-p2udt2952lv) Units=km Length=0.0609156 bus1=p2udt2952lv.1.2 bus2=p2udm10422.1.2 switch=n enabled=y phases=2 Linecode=1P_OH_AL_4/0_Zuzara_2

New Line.l(r:p2udt2956lv-p2ulv3716) Units=km Length=0.0595763 bus1=p2udt2956lv.1.2 bus2=p2ulv3716.1.2 switch=n enabled=y phases=2 Linecode=1P_OH_AL_4/0_Zuzara_2

New Line.l(r:p2udt3119lv-p2ulv16428) Units=km Length=0.0154486 bus1=p2udt3119lv.1.2 bus2=p2ulv16428.1.2 switch=n enabled=y phases=2 Linecode=1P_OH_AL_2/0_Rucina_2

New Line.l(r:p2udm10942-p2ulv3956) Units=km Length=0.0180762 bus1=p2udm10942.1.2 bus2=p2ulv3956.1.2 switch=n enabled=y phases=2 Linecode=1P_OH_AL_2/0_Rucina_2

New Line.l(r:p2udm10942-p2udt3119lv) Units=km Length=0.019316 bus1=p2udt3119lv.1.2 bus2=p2udm10942.1.2 switch=n enabled=y phases=2 Linecode=1P_OH_AL_2/0_Rucina_2

New Line.l(r:p2udm11334-p2ulv13711) Units=km Length=0.013751200000000002 bus1=p2udm11334.1.2 bus2=p2ulv13711.1.2 switch=n enabled=y phases=2 Linecode=1P_UG_AL_1/0_Brenau_2

New Line.l(r:p2udm11334-p2udt3251lv) Units=km Length=0.041601900000000004 bus1=p2udt3251lv.1.2 bus2=p2udm11334.1.2 switch=n enabled=y phases=2 Linecode=1P_UG_AL_1/0_Brenau_2

New Line.l(r:p2udm11335-p2ulv19851) Units=km Length=0.0133459 bus1=p2udm11335.1.2 bus2=p2ulv19851.1.2 switch=n enabled=y phases=2 Linecode=1P_UG_AL_1/0_Brenau_2

New Line.l(r:p2udm11333-p2ulv4186) Units=km Length=0.0139873 bus1=p2udm11333.1.2 bus2=p2ulv4186.1.2 switch=n enabled=y phases=2 Linecode=1P_UG_AL_1/0_Brenau_2

New Line.l(r:p2udm11333-p2ulv22550) Units=km Length=0.0143551 bus1=p2udm11333.1.2 bus2=p2ulv22550.1.2 switch=n enabled=y phases=2 Linecode=1P_UG_AL_1/0_Brenau_2

New Line.l(r:p2udm11333-p2udm11335) Units=km Length=0.00869068 bus1=p2udm11335.1.2 bus2=p2udm11333.1.2 switch=n enabled=y phases=2 Linecode=1P_UG_AL_4/0_Sweetbriar_2

New Line.l(r:p2udm11335-p2udt3251lv) Units=km Length=0.00870021 bus1=p2udt3251lv.1.2 bus2=p2udm11335.1.2 switch=n enabled=y phases=2 Linecode=1P_UG_AL_4/0_Sweetbriar_2

New Line.l(r:p2udt3252lv-p2ulv14138) Units=km Length=0.0151882 bus1=p2udt3252lv.1.2 bus2=p2ulv14138.1.2 switch=n enabled=y phases=2 Linecode=1P_UG_AL_1/0_Brenau_2

New Line.l(r:p2udt3252lv-p2ulv17572) Units=km Length=0.0156189 bus1=p2udt3252lv.1.2 bus2=p2ulv17572.1.2 switch=n enabled=y phases=2 Linecode=1P_UG_AL_1/0_Brenau_2

New Line.l(r:p2udm11337-p2ulv4187) Units=km Length=0.0149022 bus1=p2udm11337.1.2 bus2=p2ulv4187.1.2 switch=n enabled=y phases=2 Linecode=1P_UG_AL_1/0_Brenau_2

New Line.l(r:p2udm11337-p2udt3252lv) Units=km Length=0.00997126 bus1=p2udt3252lv.1.2 bus2=p2udm11337.1.2 switch=n enabled=y phases=2 Linecode=1P_UG_AL_1/0_Brenau_2

New Line.l(r:p2udm11338-p2ulv12754) Units=km Length=0.015452300000000002 bus1=p2udm11338.1.2 bus2=p2ulv12754.1.2 switch=n enabled=y phases=2 Linecode=1P_UG_AL_1/0_Brenau_2

New Line.l(r:p2udm11338-p2udt3252lv) Units=km Length=0.00997359 bus1=p2udt3252lv.1.2 bus2=p2udm11338.1.2 switch=n enabled=y phases=2 Linecode=1P_UG_AL_1/0_Brenau_2

New Line.l(r:p2udt3255lv-p2ulv4193) Units=km Length=0.0229088 bus1=p2udt3255lv.1.2 bus2=p2ulv4193.1.2 switch=n enabled=y phases=2 Linecode=1P_OH_AL_2/0_Rucina_2

New Line.l(r:p2udt3255lv-p2ulv21151) Units=km Length=0.0229088 bus1=p2udt3255lv.1.2 bus2=p2ulv21151.1.2 switch=n enabled=y phases=2 Linecode=1P_OH_AL_2/0_Rucina_2

New Line.l(r:p2udt3256lv-p2ulv4194) Units=km Length=0.0159 bus1=p2udt3256lv.1.2 bus2=p2ulv4194.1.2 switch=n enabled=y phases=2 Linecode=1P_UG_AL_1/0_Brenau_2

New Line.l(r:p2udt3256lv-p2ulv10143) Units=km Length=0.0145642 bus1=p2udt3256lv.1.2 bus2=p2ulv10143.1.2 switch=n enabled=y phases=2 Linecode=1P_UG_AL_4/0_Sweetbriar_2

New Line.l(r:p2udm11349-p2ulv15044) Units=km Length=0.0156568 bus1=p2udm11349.1.2 bus2=p2ulv15044.1.2 switch=n enabled=y phases=2 Linecode=1P_UG_AL_1/0_Brenau_2

New Line.l(r:p2udm11349-p2udt3256lv) Units=km Length=0.00985455 bus1=p2udt3256lv.1.2 bus2=p2udm11349.1.2 switch=n enabled=y phases=2 Linecode=1P_UG_AL_1/0_Brenau_2

New Line.l(r:p2udt3257lv-p2ulv4196) Units=km Length=0.0221795 bus1=p2udt3257lv.1.2 bus2=p2ulv4196.1.2 switch=n enabled=y phases=2 Linecode=1P_OH_AL_2/0_Rucina_2

New Line.l(r:p2udt3257lv-p2ulv22553) Units=km Length=0.0221795 bus1=p2udt3257lv.1.2 bus2=p2ulv22553.1.2 switch=n enabled=y phases=2 Linecode=1P_OH_AL_2/0_Rucina_2

New Line.l(r:p2udt3405lv-p2ulv20055) Units=km Length=0.01632 bus1=p2udt3405lv.1.2 bus2=p2ulv20055.1.2 switch=n enabled=y phases=2 Linecode=1P_UG_AL_1/0_Brenau_2

New Line.l(r:p2udm11820-p2ulv4444) Units=km Length=0.0169577 bus1=p2udm11820.1.2 bus2=p2ulv4444.1.2 switch=n enabled=y phases=2 Linecode=1P_UG_AL_1/0_Brenau_2

New Line.l(r:p2udm11820-p2ulv20931) Units=km Length=0.0167676 bus1=p2udm11820.1.2 bus2=p2ulv20931.1.2 switch=n enabled=y phases=2 Linecode=1P_UG_AL_1/0_Brenau_2

New Line.l(r:p2udm11820-p2udt3405lv) Units=km Length=0.0140275 bus1=p2udt3405lv.1.2 bus2=p2udm11820.1.2 switch=n enabled=y phases=2 Linecode=1P_UG_AL_4/0_Sweetbriar_2

New Line.l(r:p2udm11821-p2ulv11332) Units=km Length=0.0159994 bus1=p2udm11821.1.2 bus2=p2ulv11332.1.2 switch=n enabled=y phases=2 Linecode=1P_UG_AL_1/0_Brenau_2

New Line.l(r:p2udm11821-p2ulv11333) Units=km Length=0.0173164 bus1=p2udm11821.1.2 bus2=p2ulv11333.1.2 switch=n enabled=y phases=2 Linecode=1P_UG_AL_1/0_Brenau_2

New Line.l(r:p2udm11821-p2udt3405lv) Units=km Length=0.0166865 bus1=p2udt3405lv.1.2 bus2=p2udm11821.1.2 switch=n enabled=y phases=2 Linecode=1P_UG_AL_4/0_Sweetbriar_2

New Line.l(r:p2udt3406lv-p2ulv4445) Units=km Length=0.0169959 bus1=p2udt3406lv.1.2 bus2=p2ulv4445.1.2 switch=n enabled=y phases=2 Linecode=1P_UG_AL_1/0_Brenau_2

New Line.l(r:p2udt3406lv-p2ulv5391) Units=km Length=0.0152917 bus1=p2udt3406lv.1.2 bus2=p2ulv5391.1.2 switch=n enabled=y phases=2 Linecode=1P_UG_AL_1/0_Brenau_2

New Line.l(r:p2udm11827-p2ulv10619) Units=km Length=0.0175688 bus1=p2udm11827.1.2 bus2=p2ulv10619.1.2 switch=n enabled=y phases=2 Linecode=1P_UG_AL_1/0_Brenau_2

...