SMART-DS/v1.0/2018/AUS/P2U/scenarios/solar_high_batteries_none_timeseries/opendss_no_loadshapes/p2uhs0_1247/p2uhs0_1247--p2udt1587/Loads.dss
New Load.load_p2ulv63_1 conn=wye bus1=p2ulv63.1 kV=0.12 Vminpu=0.8 Vmaxpu=1.2 model=1 kW=4.826030344885995 kvar=1.062790197540727 Phases=1 !yearly=res_kw_12082_pu

New Load.load_p2ulv63_2 conn=wye bus1=p2ulv63.2 kV=0.12 Vminpu=0.8 Vmaxpu=1.2 model=1 kW=4.826030344885995 kvar=1.062790197540727 Phases=1 !yearly=res_kw_12082_pu

New Load.load_p2ulv64_1 conn=wye bus1=p2ulv64.1 kV=0.12 Vminpu=0.8 Vmaxpu=1.2 model=1 kW=5.920599830597058 kvar=1.0834055803900906 Phases=1 !yearly=res_kw_7705_pu

New Load.load_p2ulv64_2 conn=wye bus1=p2ulv64.2 kV=0.12 Vminpu=0.8 Vmaxpu=1.2 model=1 kW=5.920599830597058 kvar=1.0834055803900906 Phases=1 !yearly=res_kw_7705_pu

New Load.load_p2ulv65_1 conn=wye bus1=p2ulv65.1 kV=0.12 Vminpu=0.8 Vmaxpu=1.2 model=1 kW=4.934342058499102 kvar=1.3938542559068314 Phases=1 !yearly=res_kw_13392_pu

New Load.load_p2ulv65_2 conn=wye bus1=p2ulv65.2 kV=0.12 Vminpu=0.8 Vmaxpu=1.2 model=1 kW=4.934342058499102 kvar=1.3938542559068314 Phases=1 !yearly=res_kw_13392_pu

New Load.load_p2ulv66_1 conn=wye bus1=p2ulv66.1 kV=0.12 Vminpu=0.8 Vmaxpu=1.2 model=1 kW=6.899975949142275 kvar=1.6519372839728867 Phases=1 !yearly=res_kw_32758_pu

New Load.load_p2ulv66_2 conn=wye bus1=p2ulv66.2 kV=0.12 Vminpu=0.8 Vmaxpu=1.2 model=1 kW=6.899975949142275 kvar=1.6519372839728867 Phases=1 !yearly=res_kw_32758_pu

New Load.load_p2ulv67_1 conn=wye bus1=p2ulv67.1 kV=0.12 Vminpu=0.8 Vmaxpu=1.2 model=1 kW=7.923390975995866 kvar=1.3503965783481486 Phases=1 !yearly=res_kw_43019_pu

New Load.load_p2ulv67_2 conn=wye bus1=p2ulv67.2 kV=0.12 Vminpu=0.8 Vmaxpu=1.2 model=1 kW=7.923390975995866 kvar=1.3503965783481486 Phases=1 !yearly=res_kw_43019_pu

New Load.load_p2ulv68_1 conn=wye bus1=p2ulv68.1 kV=0.12 Vminpu=0.8 Vmaxpu=1.2 model=1 kW=7.107990558259305 kvar=2.2585246090252302 Phases=1 !yearly=res_kw_18909_pu

New Load.load_p2ulv68_2 conn=wye bus1=p2ulv68.2 kV=0.12 Vminpu=0.8 Vmaxpu=1.2 model=1 kW=7.107990558259305 kvar=2.2585246090252302 Phases=1 !yearly=res_kw_18909_pu

New Load.load_p2ulv69_1 conn=wye bus1=p2ulv69.1 kV=0.12 Vminpu=0.8 Vmaxpu=1.2 model=1 kW=12.623708791939027 kvar=0.6723185174638054 Phases=1 !yearly=res_kw_12476_pu

New Load.load_p2ulv69_2 conn=wye bus1=p2ulv69.2 kV=0.12 Vminpu=0.8 Vmaxpu=1.2 model=1 kW=12.623708791939027 kvar=0.6723185174638054 Phases=1 !yearly=res_kw_12476_pu

New Load.load_p2ulv335_1 conn=wye bus1=p2ulv335.1 kV=0.12 Vminpu=0.8 Vmaxpu=1.2 model=1 kW=6.77334055851312 kvar=1.5126632555525492 Phases=1 !yearly=res_kw_1999_pu

New Load.load_p2ulv335_2 conn=wye bus1=p2ulv335.2 kV=0.12 Vminpu=0.8 Vmaxpu=1.2 model=1 kW=6.77334055851312 kvar=1.5126632555525492 Phases=1 !yearly=res_kw_1999_pu

New Load.load_p2ulv338_1 conn=wye bus1=p2ulv338.1 kV=0.12 Vminpu=0.8 Vmaxpu=1.2 model=1 kW=4.230062891228552 kvar=1.1088318088439775 Phases=1 !yearly=res_kw_953_pu

New Load.load_p2ulv338_2 conn=wye bus1=p2ulv338.2 kV=0.12 Vminpu=0.8 Vmaxpu=1.2 model=1 kW=4.230062891228552 kvar=1.1088318088439775 Phases=1 !yearly=res_kw_953_pu

New Load.load_p2ulv339_1 conn=wye bus1=p2ulv339.1 kV=0.12 Vminpu=0.8 Vmaxpu=1.2 model=1 kW=7.323712673907353 kvar=1.8117876624732137 Phases=1 !yearly=res_kw_4949_pu

New Load.load_p2ulv339_2 conn=wye bus1=p2ulv339.2 kV=0.12 Vminpu=0.8 Vmaxpu=1.2 model=1 kW=7.323712673907353 kvar=1.8117876624732137 Phases=1 !yearly=res_kw_4949_pu

New Load.load_p2ulv555_1 conn=wye bus1=p2ulv555.1 kV=0.12 Vminpu=0.8 Vmaxpu=1.2 model=1 kW=2.352069755875099 kvar=0.5914621096467607 Phases=1 !yearly=com_kw_42387_pu

New Load.load_p2ulv555_2 conn=wye bus1=p2ulv555.2 kV=0.12 Vminpu=0.8 Vmaxpu=1.2 model=1 kW=2.352069755875099 kvar=0.5914621096467607 Phases=1 !yearly=com_kw_42387_pu

New Load.load_p2ulv556_1 conn=wye bus1=p2ulv556.1 kV=0.12 Vminpu=0.8 Vmaxpu=1.2 model=1 kW=4.826030344885995 kvar=1.062790197540727 Phases=1 !yearly=res_kw_12082_pu

New Load.load_p2ulv556_2 conn=wye bus1=p2ulv556.2 kV=0.12 Vminpu=0.8 Vmaxpu=1.2 model=1 kW=4.826030344885995 kvar=1.062790197540727 Phases=1 !yearly=res_kw_12082_pu

New Load.load_p2ulv557_1 conn=wye bus1=p2ulv557.1 kV=0.12 Vminpu=0.8 Vmaxpu=1.2 model=1 kW=5.299973293948676 kvar=1.3758784116040506 Phases=1 !yearly=res_kw_24031_pu

New Load.load_p2ulv557_2 conn=wye bus1=p2ulv557.2 kV=0.12 Vminpu=0.8 Vmaxpu=1.2 model=1 kW=5.299973293948676 kvar=1.3758784116040506 Phases=1 !yearly=res_kw_24031_pu

New Load.load_p2ulv558_1 conn=wye bus1=p2ulv558.1 kV=0.12 Vminpu=0.8 Vmaxpu=1.2 model=1 kW=7.544055494077896 kvar=1.6943743873482953 Phases=1 !yearly=res_kw_29860_pu

New Load.load_p2ulv558_2 conn=wye bus1=p2ulv558.2 kV=0.12 Vminpu=0.8 Vmaxpu=1.2 model=1 kW=7.544055494077896 kvar=1.6943743873482953 Phases=1 !yearly=res_kw_29860_pu

New Load.load_p2ulv559_1 conn=wye bus1=p2ulv559.1 kV=0.12 Vminpu=0.8 Vmaxpu=1.2 model=1 kW=7.107990558259305 kvar=2.2585246090252302 Phases=1 !yearly=res_kw_18909_pu

New Load.load_p2ulv559_2 conn=wye bus1=p2ulv559.2 kV=0.12 Vminpu=0.8 Vmaxpu=1.2 model=1 kW=7.107990558259305 kvar=2.2585246090252302 Phases=1 !yearly=res_kw_18909_pu

...